                                  MODFLOW-NWT-SWR1 
      U.S. GEOLOGICAL SURVEY MODULAR FINITE-DIFFERENCE GROUNDWATER-FLOW MODEL
                             VERSION 1.1.4 4/01/2018
                    BASED ON MODFLOW-2005 VERSION 1.12.00 02/03/2017

 LIST FILE: model_time_0_geo_0_thick_1_K_32.27_Sy_0.1_Step1_site3_Chronicle0_Approx0_Period3652.0.list
                         UNIT    2

 OPENING model_time_0_geo_0_thick_1_K_32.27_Sy_0.1_Step1_site3_Chronicle0_Approx0_Period3652.0.nwt
 FILE TYPE:NWT   UNIT   32   STATUS:OLD    
 FORMAT:FORMATTED              ACCESS:SEQUENTIAL          

 OPENING model_time_0_geo_0_thick_1_K_32.27_Sy_0.1_Step1_site3_Chronicle0_Approx0_Period3652.0.dis
 FILE TYPE:DIS   UNIT   11   STATUS:OLD    
 FORMAT:FORMATTED              ACCESS:SEQUENTIAL          

 OPENING model_time_0_geo_0_thick_1_K_32.27_Sy_0.1_Step1_site3_Chronicle0_Approx0_Period3652.0.bas
 FILE TYPE:BAS6   UNIT   13   STATUS:OLD    
 FORMAT:FORMATTED              ACCESS:SEQUENTIAL          

 OPENING model_time_0_geo_0_thick_1_K_32.27_Sy_0.1_Step1_site3_Chronicle0_Approx0_Period3652.0.upw
 FILE TYPE:UPW   UNIT   31   STATUS:OLD    
 FORMAT:FORMATTED              ACCESS:SEQUENTIAL          

 OPENING model_time_0_geo_0_thick_1_K_32.27_Sy_0.1_Step1_site3_Chronicle0_Approx0_Period3652.0.rch
 FILE TYPE:RCH   UNIT   19   STATUS:OLD    
 FORMAT:FORMATTED              ACCESS:SEQUENTIAL          

 OPENING model_time_0_geo_0_thick_1_K_32.27_Sy_0.1_Step1_site3_Chronicle0_Approx0_Period3652.0.drn
 FILE TYPE:DRN   UNIT   21   STATUS:OLD    
 FORMAT:FORMATTED              ACCESS:SEQUENTIAL          

 OPENING model_time_0_geo_0_thick_1_K_32.27_Sy_0.1_Step1_site3_Chronicle0_Approx0_Period3652.0.oc
 FILE TYPE:OC   UNIT   14   STATUS:OLD    
 FORMAT:FORMATTED              ACCESS:SEQUENTIAL          

 OPENING model_time_0_geo_0_thick_1_K_32.27_Sy_0.1_Step1_site3_Chronicle0_Approx0_Period3652.0.hds
 FILE TYPE:DATA(BINARY)   UNIT   51   STATUS:REPLACE
 FORMAT:UNFORMATTED            ACCESS:STREAM              

 BAS -- BASIC PACKAGE, VERSION 1.1.4, 4/01/2018 INPUT READ FROM UNIT   13

 MODFLOW was compiled using mixed precision
 Precision of REAL variables:           6
 Precision of DOUBLE PRECISION variables:          15

 DISCRETIZATION INPUT DATA READ FROM UNIT   11
 # DIS package for MODFLOW-NWT generated by Flopy 3.3.6
    6 LAYERS       200 ROWS       174 COLUMNS
    6 STRESS PERIOD(S) IN SIMULATION
 MODEL TIME UNIT IS DAYS
 MODEL LENGTH UNIT IS METERS
  Confining bed flag for each layer:
   0   0   0   0   0   0

                     DELR =   75.0000    

                     DELC =   75.0000    



           TOP ELEVATION OF LAYER 1
 READING ON UNIT   11 WITH FORMAT: (174E15.6)          



             MODEL LAYER BOTTOM EL. FOR LAYER   1
 READING ON UNIT   11 WITH FORMAT: (174E15.6)          



             MODEL LAYER BOTTOM EL. FOR LAYER   2
 READING ON UNIT   11 WITH FORMAT: (174E15.6)          



             MODEL LAYER BOTTOM EL. FOR LAYER   3
 READING ON UNIT   11 WITH FORMAT: (174E15.6)          



             MODEL LAYER BOTTOM EL. FOR LAYER   4
 READING ON UNIT   11 WITH FORMAT: (174E15.6)          



             MODEL LAYER BOTTOM EL. FOR LAYER   5
 READING ON UNIT   11 WITH FORMAT: (174E15.6)          



             MODEL LAYER BOTTOM EL. FOR LAYER   6
 READING ON UNIT   11 WITH FORMAT: (174E15.6)          


 STRESS PERIOD     LENGTH       TIME STEPS     MULTIPLIER FOR DELT    SS FLAG
 ----------------------------------------------------------------------------
        1         1.000000          1                    1.000         SS
        2         3652.000          1                    1.000         TR
        3         3652.000          1                    1.000         TR
        4         3652.000          1                    1.000         TR
        5         3652.000          1                    1.000         TR
        6         732.0000          1                    1.000         TR

 COMBINED STEADY-STATE AND TRANSIENT SIMULATION




 # BAS6 package for MODFLOW-NWT generated by Flopy 3.3.6                         
 THE FREE FORMAT OPTION HAS BEEN SELECTED



                     BOUNDARY ARRAY FOR LAYER   1
 READING ON UNIT   13 WITH FORMAT: (174I10)            



                     BOUNDARY ARRAY FOR LAYER   2
 READING ON UNIT   13 WITH FORMAT: (174I10)            



                     BOUNDARY ARRAY FOR LAYER   3
 READING ON UNIT   13 WITH FORMAT: (174I10)            



                     BOUNDARY ARRAY FOR LAYER   4
 READING ON UNIT   13 WITH FORMAT: (174I10)            



                     BOUNDARY ARRAY FOR LAYER   5
 READING ON UNIT   13 WITH FORMAT: (174I10)            



                     BOUNDARY ARRAY FOR LAYER   6
 READING ON UNIT   13 WITH FORMAT: (174I10)            

 AQUIFER HEAD WILL BE SET TO  0.58100     AT ALL NO-FLOW NODES (IBOUND=0).



                       INITIAL HEAD FOR LAYER   1
 READING ON UNIT   13 WITH FORMAT: (174E15.6)          



                       INITIAL HEAD FOR LAYER   2
 READING ON UNIT   13 WITH FORMAT: (174E15.6)          



                       INITIAL HEAD FOR LAYER   3
 READING ON UNIT   13 WITH FORMAT: (174E15.6)          



                       INITIAL HEAD FOR LAYER   4
 READING ON UNIT   13 WITH FORMAT: (174E15.6)          



                       INITIAL HEAD FOR LAYER   5
 READING ON UNIT   13 WITH FORMAT: (174E15.6)          



                       INITIAL HEAD FOR LAYER   6
 READING ON UNIT   13 WITH FORMAT: (174E15.6)          
 # OC package for MODFLOW-NWT generated by Flopy 3.3.6

 OUTPUT CONTROL IS SPECIFIED ONLY AT TIME STEPS FOR WHICH OUTPUT IS DESIRED
 COMPACT CELL-BY-CELL BUDGET FILES WILL BE WRITTEN
 AUXILIARY DATA WILL BE SAVED IN CELL-BY-CELL BUDGET FILES
 HEAD PRINT FORMAT CODE IS   0    DRAWDOWN PRINT FORMAT CODE IS   0
 HEADS WILL BE SAVED ON UNIT   51    DRAWDOWNS WILL BE SAVED ON UNIT    0
 # NWT package for MODFLOW-NWT generated by Flopy 3.3.6

 NWT1 -- Newton Solver, VERSION 1.1.4, 4/01/2018
         INPUT READ FROM UNIT 32

 COMPLEX OPTION:
 DEFAULT SOLVER INPUT VALUES REFLECT STRONGLY NONLINEAR MODEL
 ***GMRES linear solver will be used***

   CONVERGENCE CRITERION OF   0.100000E-02 FOR HEAD SOLUTION
   AND A TOLERANCE OF   0.500000E+03 FOR FLOW SOLUTION AND 
   A MAXIMUM OF  1000 OUTER ITERATIONS. 


   D-B-D REDUCTION FACTOR OF    0.850000E+00 AND 
   A D-B-D INCREASE FACTOR OF    0.100000E-04 AND 
   A D-B-D RELAXATION OF    0.000000E+00 AND 
   A MOMENTUM FACTOR OF    0.100000E+00 .


   BACKTRACKING IS ACTIVE 
   THE MAXIMUM NUMBER OF BACKTRACKS IS    50 AND 
   THE BACKTRACKING TOLERANCE IS    0.110000E+01 AND
   THE BACKTRACKING REDUCTION FACTOR IS    0.700000E+00

 GMRES -- LINEAR SOLUTION BY GMRES PACKAGE 
     adapted for HYDROTHERM by Kipp and others (2008)
     using software originally developed by Saad (1990) 32
     using algorithms described in Saad (2003)

 UPW1 -- UPSTREAM WEIGHTING FLOW PACKAGE, VERSION 1.1.4, 4/01/2018
         INPUT READ FROM UNIT 31

 # UPW package for MODFLOW-NWT generated by Flopy 3.3.6
 No named parameters

   LAYER FLAGS:
 LAYER       LAYTYP          LAYAVG    CHANI           LAYVKA           LAYWET
 ---------------------------------------------------------------------------
    1             1             0     1.000E+00             0             0
    2             1             0     1.000E+00             0             0
    3             1             0     1.000E+00             0             0
    4             1             0     1.000E+00             0             0
    5             1             0     1.000E+00             0             0
    6             1             0     1.000E+00             0             0

   INTERPRETATION OF LAYER FLAGS:
                        INTERBLOCK     HORIZONTAL    DATA IN
         LAYER TYPE   TRANSMISSIVITY   ANISOTROPY   ARRAY VKA   WETTABILITY
 LAYER   (LAYTYP)        (LAYAVG)      (CHANI)     (LAYVKA)       (LAYWET)
 ---------------------------------------------------------------------------
    1   CONVERTIBLE      HARMONIC     1.000E+00    VERTICAL K  NON-WETTABLE
    2   CONVERTIBLE      HARMONIC     1.000E+00    VERTICAL K  NON-WETTABLE
    3   CONVERTIBLE      HARMONIC     1.000E+00    VERTICAL K  NON-WETTABLE
    4   CONVERTIBLE      HARMONIC     1.000E+00    VERTICAL K  NON-WETTABLE
    5   CONVERTIBLE      HARMONIC     1.000E+00    VERTICAL K  NON-WETTABLE
    6   CONVERTIBLE      HARMONIC     1.000E+00    VERTICAL K  NON-WETTABLE



              HYD. COND. ALONG ROWS FOR LAYER   1
 READING ON UNIT   31 WITH FORMAT: (174E15.6)          



                VERTICAL HYD. COND. FOR LAYER   1
 READING ON UNIT   31 WITH FORMAT: (174E15.6)          

         SPECIFIC STORAGE =  1.000000E-05 FOR LAYER   1

           SPECIFIC YIELD =   10.1000     FOR LAYER   1



              HYD. COND. ALONG ROWS FOR LAYER   2
 READING ON UNIT   31 WITH FORMAT: (174E15.6)          



                VERTICAL HYD. COND. FOR LAYER   2
 READING ON UNIT   31 WITH FORMAT: (174E15.6)          

         SPECIFIC STORAGE =  1.000000E-05 FOR LAYER   2

           SPECIFIC YIELD =   10.1000     FOR LAYER   2



              HYD. COND. ALONG ROWS FOR LAYER   3
 READING ON UNIT   31 WITH FORMAT: (174E15.6)          



                VERTICAL HYD. COND. FOR LAYER   3
 READING ON UNIT   31 WITH FORMAT: (174E15.6)          

         SPECIFIC STORAGE =  1.000000E-05 FOR LAYER   3

           SPECIFIC YIELD =   10.1000     FOR LAYER   3



              HYD. COND. ALONG ROWS FOR LAYER   4
 READING ON UNIT   31 WITH FORMAT: (174E15.6)          



                VERTICAL HYD. COND. FOR LAYER   4
 READING ON UNIT   31 WITH FORMAT: (174E15.6)          

         SPECIFIC STORAGE =  1.000000E-05 FOR LAYER   4

           SPECIFIC YIELD =   10.1000     FOR LAYER   4



              HYD. COND. ALONG ROWS FOR LAYER   5
 READING ON UNIT   31 WITH FORMAT: (174E15.6)          



                VERTICAL HYD. COND. FOR LAYER   5
 READING ON UNIT   31 WITH FORMAT: (174E15.6)          

         SPECIFIC STORAGE =  1.000000E-05 FOR LAYER   5

           SPECIFIC YIELD =   10.1000     FOR LAYER   5



              HYD. COND. ALONG ROWS FOR LAYER   6
 READING ON UNIT   31 WITH FORMAT: (174E15.6)          



                VERTICAL HYD. COND. FOR LAYER   6
 READING ON UNIT   31 WITH FORMAT: (174E15.6)          

         SPECIFIC STORAGE =  1.000000E-05 FOR LAYER   6

           SPECIFIC YIELD =   10.1000     FOR LAYER   6

 DRN -- DRAIN PACKAGE, VERSION 7, 5/2/2005 INPUT READ FROM UNIT   21
 # DRN package for MODFLOW-NWT generated by Flopy 3.3.6
 No named parameters
 MAXIMUM OF  34800 ACTIVE DRAINS AT ONE TIME


     0 Drain parameters

 RCH -- RECHARGE PACKAGE, VERSION 7, 5/2/2005 INPUT READ FROM UNIT   19
 # RCH package for MODFLOW-NWT generated by Flopy 3.3.6
 No named parameters
 OPTION 3 -- RECHARGE TO HIGHEST ACTIVE NODE IN EACH VERTICAL COLUMN


     0 Recharge parameters
1
                            STRESS PERIOD NO.    1, LENGTH =   1.000000    
                            -----------------------------------------------

                              NUMBER OF TIME STEPS =     1

                               MULTIPLIER FOR DELT =     1.000

                            INITIAL TIME STEP SIZE =   1.000000    

 DRAIN NO.  LAYER   ROW   COL     DRAIN EL.  CONDUCTANCE         
 ----------------------------------------------------------------
      1      1      1      1       8.730          0.1815E+06
      2      1      1      2       8.270          0.1815E+06
      3      1      1      3       8.060          0.1815E+06
      4      1      1      4       7.630          0.1815E+06
      5      1      1      5       6.980          0.1815E+06
      6      1      1      6       6.670          0.1815E+06
      7      1      1      7       6.050          0.1815E+06
      8      1      1      8       6.170          0.1815E+06
      9      1      1      9       5.650          0.1815E+06
     10      1      1     10       8.810          0.1815E+06
     11      1      1     11       5.260          0.1815E+06
     12      1      1     12       4.410          0.1815E+06
     13      1      1     13       4.410          0.1815E+06
     14      1      1     14       4.400          0.1815E+06
     15      1      1     15       4.400          0.1815E+06
     16      1      1     16       3.400          0.1815E+06
     17      1      1     17       3.400          0.1815E+06
     18      1      1     18       3.400          0.1815E+06
     19      1      1     19       3.910          0.1815E+06
     20      1      1     20       4.400          0.1815E+06
     21      1      1     21       7.280          0.1815E+06
     22      1      1     22       8.440          0.1815E+06
     23      1      1     23       11.55          0.1815E+06
     24      1      1     24       13.14          0.1815E+06
     25      1      1     25       14.53          0.1815E+06
     26      1      1     26       15.21          0.1815E+06
     27      1      1     27       16.40          0.1815E+06
     28      1      1     28       15.97          0.1815E+06
     29      1      1     29       16.12          0.1815E+06
     30      1      1     30       16.71          0.1815E+06
     31      1      1     31       16.54          0.1815E+06
     32      1      1     32       16.31          0.1815E+06
     33      1      1     33       16.19          0.1815E+06
     34      1      1     34       16.69          0.1815E+06
     35      1      1     35       17.55          0.1815E+06
     36      1      1     36       18.51          0.1815E+06
     37      1      1     37       19.62          0.1815E+06
     38      1      1     38       20.31          0.1815E+06
     39      1      1     39       20.63          0.1815E+06
     40      1      1     40       20.51          0.1815E+06
     41      1      1     41       19.61          0.1815E+06
     42      1      1     42       18.53          0.1815E+06
     43      1      1     43       17.15          0.1815E+06
     44      1      1     44       14.53          0.1815E+06
     45      1      1     45       15.93          0.1815E+06
     46      1      1     46       15.93          0.1815E+06
     47      1      1     47       19.19          0.1815E+06
     48      1      1     48       19.02          0.1815E+06
     49      1      1     49       17.60          0.1815E+06
     50      1      1     50       16.22          0.1815E+06
     51      1      1     51       16.50          0.1815E+06
     52      1      1     52       17.72          0.1815E+06
     53      1      1     53       19.12          0.1815E+06
     54      1      1     54       19.25          0.1815E+06
     55      1      1     55       19.85          0.1815E+06
     56      1      1     56       21.17          0.1815E+06
     57      1      1     57       21.20          0.1815E+06
     58      1      1     58       19.87          0.1815E+06
     59      1      1     59       18.77          0.1815E+06
     60      1      1     60       15.77          0.1815E+06
     61      1      1     61       11.96          0.1815E+06
     62      1      1     62       8.890          0.1815E+06
     63      1      1     63       11.73          0.1815E+06
     64      1      1     64       10.07          0.1815E+06
     65      1      1     65       8.890          0.1815E+06
     66      1      1     66       7.210          0.1815E+06
     67      1      1     67       7.170          0.1815E+06
     68      1      1     68       6.880          0.1815E+06
     69      1      1     69       7.550          0.1815E+06
     70      1      1     70       8.930          0.1815E+06
     71      1      1     71       20.14          0.1815E+06
     72      1      1     72       29.20          0.1815E+06
     73      1      1     73       32.00          0.1815E+06
     74      1      1     74       35.00          0.1815E+06
     75      1      1     75       36.70          0.1815E+06
     76      1      1     76       38.00          0.1815E+06
     77      1      1     77       37.00          0.1815E+06
     78      1      1     78       37.00          0.1815E+06
     79      1      1     79       37.60          0.1815E+06
     80      1      1     80       38.40          0.1815E+06
     81      1      1     81       41.50          0.1815E+06
     82      1      1     82       40.80          0.1815E+06
     83      1      1     83       40.30          0.1815E+06
     84      1      1     84       40.20          0.1815E+06
     85      1      1     85       40.10          0.1815E+06
     86      1      1     86       39.30          0.1815E+06
     87      1      1     87       38.80          0.1815E+06
     88      1      1     88       37.90          0.1815E+06
     89      1      1     89       36.50          0.1815E+06
     90      1      1     90       33.50          0.1815E+06
     91      1      1     91       33.30          0.1815E+06
     92      1      1     92       35.50          0.1815E+06
     93      1      1     93       36.00          0.1815E+06
     94      1      1     94       35.70          0.1815E+06
     95      1      1     95       33.00          0.1815E+06
     96      1      1     96       30.80          0.1815E+06
     97      1      1     97       33.20          0.1815E+06
     98      1      1     98       31.80          0.1815E+06
     99      1      1     99       29.90          0.1815E+06
    100      1      1    100       26.70          0.1815E+06
    101      1      1    101       20.70          0.1815E+06
    102      1      1    102       19.60          0.1815E+06
    103      1      1    103       18.70          0.1815E+06
    104      1      1    104       17.00          0.1815E+06
    105      1      1    105       15.60          0.1815E+06
    106      1      1    106       15.00          0.1815E+06
    107      1      1    107       13.90          0.1815E+06
    108      1      1    108       13.30          0.1815E+06
    109      1      1    109       12.70          0.1815E+06
    110      1      1    110       12.50          0.1815E+06
    111      1      1    111       12.50          0.1815E+06
    112      1      1    112       13.10          0.1815E+06
    113      1      1    113       13.60          0.1815E+06
    114      1      1    114       13.60          0.1815E+06
    115      1      1    115       13.50          0.1815E+06
    116      1      1    116       13.80          0.1815E+06
    117      1      1    117       14.40          0.1815E+06
    118      1      1    118       14.90          0.1815E+06
    119      1      1    119       15.80          0.1815E+06
    120      1      1    120       15.90          0.1815E+06
    121      1      1    121       15.20          0.1815E+06
    122      1      1    122       15.80          0.1815E+06
    123      1      1    123       16.10          0.1815E+06
    124      1      1    124       15.70          0.1815E+06
    125      1      1    125       15.20          0.1815E+06
    126      1      1    126       14.00          0.1815E+06
    127      1      1    127       13.10          0.1815E+06
    128      1      1    128       12.20          0.1815E+06
    129      1      1    129       11.00          0.1815E+06
    130      1      1    130       10.50          0.1815E+06
    131      1      1    131       10.00          0.1815E+06
    132      1      1    132       8.800          0.1815E+06
    133      1      1    133       9.390          0.1815E+06
    134      1      1    134       9.180          0.1815E+06
    135      1      1    135       7.690          0.1815E+06
    136      1      1    136       5.650          0.1815E+06
    137      1      1    137       5.260          0.1815E+06
    138      1      1    138       5.150          0.1815E+06
    139      1      1    139       5.320          0.1815E+06
    140      1      1    140       5.530          0.1815E+06
    141      1      1    141       5.380          0.1815E+06
    142      1      1    142       5.510          0.1815E+06
    143      1      1    143       5.460          0.1815E+06
    144      1      1    144       5.590          0.1815E+06
    145      1      1    145       5.340          0.1815E+06
    146      1      1    146       5.360          0.1815E+06
    147      1      1    147       5.400          0.1815E+06
    148      1      1    148       5.340          0.1815E+06
    149      1      1    149       5.170          0.1815E+06
    150      1      1    150       5.090          0.1815E+06
    151      1      1    151       4.960          0.1815E+06
    152      1      1    152       4.840          0.1815E+06
    153      1      1    153       4.760          0.1815E+06
    154      1      1    154       4.730          0.1815E+06
    155      1      1    155       4.780          0.1815E+06
    156      1      1    156       4.690          0.1815E+06
    157      1      1    157       4.800          0.1815E+06
    158      1      1    158       4.800          0.1815E+06
    159      1      1    159       4.840          0.1815E+06
    160      1      1    160       4.750          0.1815E+06
    161      1      1    161       4.730          0.1815E+06
    162      1      1    162       4.710          0.1815E+06
    163      1      1    163       4.920          0.1815E+06
    164      1      1    164       4.920          0.1815E+06
    165      1      1    165       4.840          0.1815E+06
    166      1      1    166       4.880          0.1815E+06
    167      1      1    167       4.940          0.1815E+06
    168      1      1    168       4.690          0.1815E+06
    169      1      1    169       4.670          0.1815E+06
    170      1      1    170       4.780          0.1815E+06
    171      1      1    171       4.630          0.1815E+06
    172      1      1    172       4.670          0.1815E+06
    173      1      1    173       4.650          0.1815E+06
    174      1      1    174       4.710          0.1815E+06
    175      1      2      1       8.150          0.1815E+06
    176      1      2      2       8.100          0.1815E+06
    177      1      2      3       8.770          0.1815E+06
    178      1      2      4       7.340          0.1815E+06
    179      1      2      5       7.030          0.1815E+06
    180      1      2      6       6.530          0.1815E+06
    181      1      2      7       6.460          0.1815E+06
    182      1      2      8       5.650          0.1815E+06
    183      1      2      9       5.980          0.1815E+06
    184      1      2     10       5.610          0.1815E+06
    185      1      2     11       8.190          0.1815E+06
    186      1      2     12       4.410          0.1815E+06
    187      1      2     13       4.410          0.1815E+06
    188      1      2     14       4.400          0.1815E+06
    189      1      2     15       4.400          0.1815E+06
    190      1      2     16       3.400          0.1815E+06
    191      1      2     17       3.400          0.1815E+06
    192      1      2     18       3.400          0.1815E+06
    193      1      2     19       3.910          0.1815E+06
    194      1      2     20       5.820          0.1815E+06
    195      1      2     21       7.880          0.1815E+06
    196      1      2     22       10.59          0.1815E+06
    197      1      2     23       12.27          0.1815E+06
    198      1      2     24       12.81          0.1815E+06
    199      1      2     25       13.00          0.1815E+06
    200      1      2     26       14.27          0.1815E+06
    201      1      2     27       14.93          0.1815E+06
    202      1      2     28       15.65          0.1815E+06
    203      1      2     29       15.80          0.1815E+06
    204      1      2     30       16.39          0.1815E+06
    205      1      2     31       16.20          0.1815E+06
    206      1      2     32       16.07          0.1815E+06
    207      1      2     33       16.45          0.1815E+06
    208      1      2     34       15.97          0.1815E+06
    209      1      2     35       16.77          0.1815E+06
    210      1      2     36       17.72          0.1815E+06
    211      1      2     37       18.52          0.1815E+06
    212      1      2     38       19.03          0.1815E+06
    213      1      2     39       19.17          0.1815E+06
    214      1      2     40       19.32          0.1815E+06
    215      1      2     41       18.57          0.1815E+06
    216      1      2     42       17.60          0.1815E+06
    217      1      2     43       16.32          0.1815E+06
    218      1      2     44       15.07          0.1815E+06
    219      1      2     45       13.76          0.1815E+06
    220      1      2     46       15.71          0.1815E+06
    221      1      2     47       16.37          0.1815E+06
    222      1      2     48       16.54          0.1815E+06
    223      1      2     49       17.32          0.1815E+06
    224      1      2     50       17.95          0.1815E+06
    225      1      2     51       17.98          0.1815E+06
    226      1      2     52       18.39          0.1815E+06
    227      1      2     53       18.97          0.1815E+06
    228      1      2     54       19.29          0.1815E+06
    229      1      2     55       20.04          0.1815E+06
    230      1      2     56       20.73          0.1815E+06
    231      1      2     57       20.25          0.1815E+06
    232      1      2     58       18.89          0.1815E+06
    233      1      2     59       18.82          0.1815E+06
    234      1      2     60       15.61          0.1815E+06
    235      1      2     61       12.51          0.1815E+06
    236      1      2     62       9.810          0.1815E+06
    237      1      2     63       7.510          0.1815E+06
    238      1      2     64       7.130          0.1815E+06
    239      1      2     65       7.070          0.1815E+06
    240      1      2     66       7.050          0.1815E+06
    241      1      2     67       7.340          0.1815E+06
    242      1      2     68       6.940          0.1815E+06
    243      1      2     69       8.180          0.1815E+06
    244      1      2     70       13.59          0.1815E+06
    245      1      2     71       21.91          0.1815E+06
    246      1      2     72       31.00          0.1815E+06
    247      1      2     73       35.20          0.1815E+06
    248      1      2     74       37.20          0.1815E+06
    249      1      2     75       37.50          0.1815E+06
    250      1      2     76       37.60          0.1815E+06
    251      1      2     77       37.20          0.1815E+06
    252      1      2     78       37.20          0.1815E+06
    253      1      2     79       37.80          0.1815E+06
    254      1      2     80       37.90          0.1815E+06
    255      1      2     81       39.40          0.1815E+06
    256      1      2     82       40.60          0.1815E+06
    257      1      2     83       39.60          0.1815E+06
    258      1      2     84       38.80          0.1815E+06
    259      1      2     85       38.80          0.1815E+06
    260      1      2     86       38.10          0.1815E+06
    261      1      2     87       37.80          0.1815E+06
    262      1      2     88       37.40          0.1815E+06
    263      1      2     89       35.70          0.1815E+06
    264      1      2     90       31.90          0.1815E+06
    265      1      2     91       31.30          0.1815E+06
    266      1      2     92       35.00          0.1815E+06
    267      1      2     93       34.90          0.1815E+06
    268      1      2     94       32.50          0.1815E+06
    269      1      2     95       29.10          0.1815E+06
    270      1      2     96       26.00          0.1815E+06
    271      1      2     97       27.10          0.1815E+06
    272      1      2     98       25.80          0.1815E+06
    273      1      2     99       23.40          0.1815E+06
    274      1      2    100       21.30          0.1815E+06
    275      1      2    101       16.90          0.1815E+06
    276      1      2    102       15.90          0.1815E+06
    277      1      2    103       16.20          0.1815E+06
    278      1      2    104       14.70          0.1815E+06
    279      1      2    105       13.50          0.1815E+06
    280      1      2    106       12.90          0.1815E+06
    281      1      2    107       13.00          0.1815E+06
    282      1      2    108       12.60          0.1815E+06
    283      1      2    109       12.70          0.1815E+06
    284      1      2    110       13.60          0.1815E+06
    285      1      2    111       14.60          0.1815E+06
    286      1      2    112       15.30          0.1815E+06
    287      1      2    113       15.10          0.1815E+06
    288      1      2    114       14.70          0.1815E+06
    289      1      2    115       14.50          0.1815E+06
    290      1      2    116       14.60          0.1815E+06
    291      1      2    117       15.10          0.1815E+06
    292      1      2    118       15.10          0.1815E+06
    293      1      2    119       15.60          0.1815E+06
    294      1      2    120       15.80          0.1815E+06
    295      1      2    121       15.30          0.1815E+06
    296      1      2    122       15.50          0.1815E+06
    297      1      2    123       15.70          0.1815E+06
    298      1      2    124       15.50          0.1815E+06
    299      1      2    125       15.20          0.1815E+06
    300      1      2    126       15.00          0.1815E+06
    301      1      2    127       13.70          0.1815E+06
    302      1      2    128       13.10          0.1815E+06
    303      1      2    129       12.90          0.1815E+06
    304      1      2    130       11.30          0.1815E+06
    305      1      2    131       10.11          0.1815E+06
    306      1      2    132       8.430          0.1815E+06
    307      1      2    133       7.590          0.1815E+06
    308      1      2    134       7.000          0.1815E+06
    309      1      2    135       5.940          0.1815E+06
    310      1      2    136       5.280          0.1815E+06
    311      1      2    137       5.300          0.1815E+06
    312      1      2    138       5.440          0.1815E+06
    313      1      2    139       5.530          0.1815E+06
    314      1      2    140       5.550          0.1815E+06
    315      1      2    141       5.650          0.1815E+06
    316      1      2    142       5.570          0.1815E+06
    317      1      2    143       5.590          0.1815E+06
    318      1      2    144       5.610          0.1815E+06
    319      1      2    145       5.530          0.1815E+06
    320      1      2    146       5.480          0.1815E+06
    321      1      2    147       5.400          0.1815E+06
    322      1      2    148       5.380          0.1815E+06
    323      1      2    149       5.320          0.1815E+06
    324      1      2    150       5.360          0.1815E+06
    325      1      2    151       5.260          0.1815E+06
    326      1      2    152       5.320          0.1815E+06
    327      1      2    153       5.010          0.1815E+06
    328      1      2    154       4.940          0.1815E+06
    329      1      2    155       4.960          0.1815E+06
    330      1      2    156       4.630          0.1815E+06
    331      1      2    157       5.000          0.1815E+06
    332      1      2    158       4.960          0.1815E+06
    333      1      2    159       5.050          0.1815E+06
    334      1      2    160       5.130          0.1815E+06
    335      1      2    161       4.940          0.1815E+06
    336      1      2    162       5.050          0.1815E+06
    337      1      2    163       5.070          0.1815E+06
    338      1      2    164       4.960          0.1815E+06
    339      1      2    165       4.980          0.1815E+06
    340      1      2    166       4.920          0.1815E+06
    341      1      2    167       4.730          0.1815E+06
    342      1      2    168       4.710          0.1815E+06
    343      1      2    169       4.690          0.1815E+06
    344      1      2    170       4.780          0.1815E+06
    345      1      2    171       4.630          0.1815E+06
    346      1      2    172       4.730          0.1815E+06
    347      1      2    173       4.780          0.1815E+06
    348      1      2    174       4.730          0.1815E+06
    349      1      3      1       7.900          0.1815E+06
    350      1      3      2       7.360          0.1815E+06
    351      1      3      3       7.510          0.1815E+06
    352      1      3      4       7.090          0.1815E+06
    353      1      3      5       7.380          0.1815E+06
    354      1      3      6       6.550          0.1815E+06
    355      1      3      7       6.670          0.1815E+06
    356      1      3      8       6.300          0.1815E+06
    357      1      3      9       6.030          0.1815E+06
    358      1      3     10       5.480          0.1815E+06
    359      1      3     11       7.300          0.1815E+06
    360      1      3     12       4.400          0.1815E+06
    361      1      3     13       4.410          0.1815E+06
    362      1      3     14       4.410          0.1815E+06
    363      1      3     15       4.410          0.1815E+06
    364      1      3     16       3.410          0.1815E+06
    365      1      3     17       3.410          0.1815E+06
    366      1      3     18       2.910          0.1815E+06
    367      1      3     19       4.400          0.1815E+06
    368      1      3     20       7.170          0.1815E+06
    369      1      3     21       8.880          0.1815E+06
    370      1      3     22       13.28          0.1815E+06
    371      1      3     23       15.60          0.1815E+06
    372      1      3     24       14.44          0.1815E+06
    373      1      3     25       14.34          0.1815E+06
    374      1      3     26       13.93          0.1815E+06
    375      1      3     27       15.09          0.1815E+06
    376      1      3     28       15.14          0.1815E+06
    377      1      3     29       15.52          0.1815E+06
    378      1      3     30       15.46          0.1815E+06
    379      1      3     31       16.23          0.1815E+06
    380      1      3     32       16.25          0.1815E+06
    381      1      3     33       16.64          0.1815E+06
    382      1      3     34       16.38          0.1815E+06
    383      1      3     35       17.04          0.1815E+06
    384      1      3     36       17.71          0.1815E+06
    385      1      3     37       17.87          0.1815E+06
    386      1      3     38       18.42          0.1815E+06
    387      1      3     39       19.26          0.1815E+06
    388      1      3     40       19.48          0.1815E+06
    389      1      3     41       19.14          0.1815E+06
    390      1      3     42       18.62          0.1815E+06
    391      1      3     43       18.01          0.1815E+06
    392      1      3     44       16.36          0.1815E+06
    393      1      3     45       13.28          0.1815E+06
    394      1      3     46       14.44          0.1815E+06
    395      1      3     47       16.03          0.1815E+06
    396      1      3     48       19.04          0.1815E+06
    397      1      3     49       19.72          0.1815E+06
    398      1      3     50       19.77          0.1815E+06
    399      1      3     51       19.65          0.1815E+06
    400      1      3     52       20.20          0.1815E+06
    401      1      3     53       19.94          0.1815E+06
    402      1      3     54       20.07          0.1815E+06
    403      1      3     55       20.40          0.1815E+06
    404      1      3     56       20.54          0.1815E+06
    405      1      3     57       19.89          0.1815E+06
    406      1      3     58       18.86          0.1815E+06
    407      1      3     59       19.21          0.1815E+06
    408      1      3     60       17.35          0.1815E+06
    409      1      3     61       13.97          0.1815E+06
    410      1      3     62       8.020          0.1815E+06
    411      1      3     63       6.570          0.1815E+06
    412      1      3     64       6.030          0.1815E+06
    413      1      3     65       6.760          0.1815E+06
    414      1      3     66       6.800          0.1815E+06
    415      1      3     67       8.440          0.1815E+06
    416      1      3     68       13.31          0.1815E+06
    417      1      3     69       15.64          0.1815E+06
    418      1      3     70       28.84          0.1815E+06
    419      1      3     71       28.70          0.1815E+06
    420      1      3     72       30.33          0.1815E+06
    421      1      3     73       36.80          0.1815E+06
    422      1      3     74       37.60          0.1815E+06
    423      1      3     75       37.50          0.1815E+06
    424      1      3     76       38.00          0.1815E+06
    425      1      3     77       37.70          0.1815E+06
    426      1      3     78       37.90          0.1815E+06
    427      1      3     79       38.10          0.1815E+06
    428      1      3     80       37.60          0.1815E+06
    429      1      3     81       37.90          0.1815E+06
    430      1      3     82       38.40          0.1815E+06
    431      1      3     83       38.70          0.1815E+06
    432      1      3     84       37.90          0.1815E+06
    433      1      3     85       37.10          0.1815E+06
    434      1      3     86       36.80          0.1815E+06
    435      1      3     87       36.60          0.1815E+06
    436      1      3     88       37.00          0.1815E+06
    437      1      3     89       35.30          0.1815E+06
    438      1      3     90       30.40          0.1815E+06
    439      1      3     91       30.70          0.1815E+06
    440      1      3     92       32.60          0.1815E+06
    441      1      3     93       31.20          0.1815E+06
    442      1      3     94       27.90          0.1815E+06
    443      1      3     95       24.80          0.1815E+06
    444      1      3     96       22.60          0.1815E+06
    445      1      3     97       21.40          0.1815E+06
    446      1      3     98       20.90          0.1815E+06
    447      1      3     99       19.30          0.1815E+06
    448      1      3    100       17.60          0.1815E+06
    449      1      3    101       16.40          0.1815E+06
    450      1      3    102       14.90          0.1815E+06
    451      1      3    103       14.80          0.1815E+06
    452      1      3    104       13.70          0.1815E+06
    453      1      3    105       13.00          0.1815E+06
    454      1      3    106       12.80          0.1815E+06
    455      1      3    107       12.70          0.1815E+06
    456      1      3    108       12.70          0.1815E+06
    457      1      3    109       13.30          0.1815E+06
    458      1      3    110       15.40          0.1815E+06
    459      1      3    111       16.00          0.1815E+06
    460      1      3    112       16.20          0.1815E+06
    461      1      3    113       15.40          0.1815E+06
    462      1      3    114       15.30          0.1815E+06
    463      1      3    115       15.50          0.1815E+06
    464      1      3    116       15.50          0.1815E+06
    465      1      3    117       15.60          0.1815E+06
    466      1      3    118       15.40          0.1815E+06
    467      1      3    119       15.50          0.1815E+06
    468      1      3    120       15.30          0.1815E+06
    469      1      3    121       15.00          0.1815E+06
    470      1      3    122       15.00          0.1815E+06
    471      1      3    123       15.10          0.1815E+06
    472      1      3    124       15.40          0.1815E+06
    473      1      3    125       15.40          0.1815E+06
    474      1      3    126       15.20          0.1815E+06
    475      1      3    127       14.70          0.1815E+06
    476      1      3    128       13.70          0.1815E+06
    477      1      3    129       12.60          0.1815E+06
    478      1      3    130       11.60          0.1815E+06
    479      1      3    131       10.21          0.1815E+06
    480      1      3    132       8.350          0.1815E+06
    481      1      3    133       6.440          0.1815E+06
    482      1      3    134       5.460          0.1815E+06
    483      1      3    135       5.630          0.1815E+06
    484      1      3    136       5.690          0.1815E+06
    485      1      3    137       5.590          0.1815E+06
    486      1      3    138       5.710          0.1815E+06
    487      1      3    139       5.670          0.1815E+06
    488      1      3    140       5.760          0.1815E+06
    489      1      3    141       5.750          0.1815E+06
    490      1      3    142       5.780          0.1815E+06
    491      1      3    143       5.670          0.1815E+06
    492      1      3    144       5.690          0.1815E+06
    493      1      3    145       5.530          0.1815E+06
    494      1      3    146       5.530          0.1815E+06
    495      1      3    147       5.360          0.1815E+06
    496      1      3    148       5.380          0.1815E+06
    497      1      3    149       5.340          0.1815E+06
    498      1      3    150       5.260          0.1815E+06
    499      1      3    151       5.250          0.1815E+06
    500      1      3    152       5.250          0.1815E+06
    501      1      3    153       5.070          0.1815E+06
    502      1      3    154       5.090          0.1815E+06
    503      1      3    155       5.090          0.1815E+06
    504      1      3    156       4.960          0.1815E+06
    505      1      3    157       5.090          0.1815E+06
    506      1      3    158       5.260          0.1815E+06
    507      1      3    159       5.170          0.1815E+06
    508      1      3    160       5.170          0.1815E+06
    509      1      3    161       5.190          0.1815E+06
    510      1      3    162       5.130          0.1815E+06
    511      1      3    163       4.940          0.1815E+06
    512      1      3    164       4.980          0.1815E+06
    513      1      3    165       5.010          0.1815E+06
    514      1      3    166       4.920          0.1815E+06
    515      1      3    167       4.820          0.1815E+06
    516      1      3    168       4.820          0.1815E+06
    517      1      3    169       4.670          0.1815E+06
    518      1      3    170       4.710          0.1815E+06
    519      1      3    171       4.690          0.1815E+06
    520      1      3    172       4.760          0.1815E+06
    521      1      3    173       4.800          0.1815E+06
    522      1      3    174       4.750          0.1815E+06
    523      1      4      1       9.020          0.1815E+06
    524      1      4      2       8.780          0.1815E+06
    525      1      4      3       7.760          0.1815E+06
    526      1      4      4       7.380          0.1815E+06
    527      1      4      5       8.000          0.1815E+06
    528      1      4      6       6.710          0.1815E+06
    529      1      4      7       6.210          0.1815E+06
    530      1      4      8       5.900          0.1815E+06
    531      1      4      9       5.530          0.1815E+06
    532      1      4     10       5.480          0.1815E+06
    533      1      4     11       4.410          0.1815E+06
    534      1      4     12       3.410          0.1815E+06
    535      1      4     13       4.400          0.1815E+06
    536      1      4     14       3.410          0.1815E+06
    537      1      4     15       3.410          0.1815E+06
    538      1      4     16       3.410          0.1815E+06
    539      1      4     17       3.400          0.1815E+06
    540      1      4     18       2.400          0.1815E+06
    541      1      4     19       2.420          0.1815E+06
    542      1      4     20       5.410          0.1815E+06
    543      1      4     21       5.410          0.1815E+06
    544      1      4     22       13.92          0.1815E+06
    545      1      4     23       15.10          0.1815E+06
    546      1      4     24       14.40          0.1815E+06
    547      1      4     25       13.61          0.1815E+06
    548      1      4     26       14.64          0.1815E+06
    549      1      4     27       15.27          0.1815E+06
    550      1      4     28       15.17          0.1815E+06
    551      1      4     29       15.02          0.1815E+06
    552      1      4     30       15.14          0.1815E+06
    553      1      4     31       14.67          0.1815E+06
    554      1      4     32       16.15          0.1815E+06
    555      1      4     33       16.27          0.1815E+06
    556      1      4     34       16.60          0.1815E+06
    557      1      4     35       16.86          0.1815E+06
    558      1      4     36       17.09          0.1815E+06
    559      1      4     37       17.06          0.1815E+06
    560      1      4     38       18.68          0.1815E+06
    561      1      4     39       20.36          0.1815E+06
    562      1      4     40       20.18          0.1815E+06
    563      1      4     41       18.36          0.1815E+06
    564      1      4     42       17.37          0.1815E+06
    565      1      4     43       17.57          0.1815E+06
    566      1      4     44       16.28          0.1815E+06
    567      1      4     45       13.02          0.1815E+06
    568      1      4     46       18.70          0.1815E+06
    569      1      4     47       20.30          0.1815E+06
    570      1      4     48       21.02          0.1815E+06
    571      1      4     49       21.01          0.1815E+06
    572      1      4     50       20.64          0.1815E+06
    573      1      4     51       20.72          0.1815E+06
    574      1      4     52       20.81          0.1815E+06
    575      1      4     53       20.50          0.1815E+06
    576      1      4     54       20.50          0.1815E+06
    577      1      4     55       20.97          0.1815E+06
    578      1      4     56       20.77          0.1815E+06
    579      1      4     57       18.84          0.1815E+06
    580      1      4     58       20.00          0.1815E+06
    581      1      4     59       18.87          0.1815E+06
    582      1      4     60       17.94          0.1815E+06
    583      1      4     61       9.970          0.1815E+06
    584      1      4     62       6.420          0.1815E+06
    585      1      4     63       6.340          0.1815E+06
    586      1      4     64       6.340          0.1815E+06
    587      1      4     65       6.980          0.1815E+06
    588      1      4     66       10.02          0.1815E+06
    589      1      4     67       13.85          0.1815E+06
    590      1      4     68       23.19          0.1815E+06
    591      1      4     69       29.37          0.1815E+06
    592      1      4     70       32.86          0.1815E+06
    593      1      4     71       34.68          0.1815E+06
    594      1      4     72       34.27          0.1815E+06
    595      1      4     73       34.70          0.1815E+06
    596      1      4     74       36.60          0.1815E+06
    597      1      4     75       36.90          0.1815E+06
    598      1      4     76       35.90          0.1815E+06
    599      1      4     77       36.40          0.1815E+06
    600      1      4     78       38.10          0.1815E+06
    601      1      4     79       38.30          0.1815E+06
    602      1      4     80       37.70          0.1815E+06
    603      1      4     81       37.60          0.1815E+06
    604      1      4     82       37.50          0.1815E+06
    605      1      4     83       37.60          0.1815E+06
    606      1      4     84       36.50          0.1815E+06
    607      1      4     85       35.70          0.1815E+06
    608      1      4     86       35.30          0.1815E+06
    609      1      4     87       35.80          0.1815E+06
    610      1      4     88       35.80          0.1815E+06
    611      1      4     89       33.40          0.1815E+06
    612      1      4     90       29.00          0.1815E+06
    613      1      4     91       28.20          0.1815E+06
    614      1      4     92       28.50          0.1815E+06
    615      1      4     93       25.70          0.1815E+06
    616      1      4     94       23.00          0.1815E+06
    617      1      4     95       21.30          0.1815E+06
    618      1      4     96       20.20          0.1815E+06
    619      1      4     97       18.80          0.1815E+06
    620      1      4     98       18.30          0.1815E+06
    621      1      4     99       17.70          0.1815E+06
    622      1      4    100       16.00          0.1815E+06
    623      1      4    101       15.00          0.1815E+06
    624      1      4    102       14.70          0.1815E+06
    625      1      4    103       15.20          0.1815E+06
    626      1      4    104       15.30          0.1815E+06
    627      1      4    105       15.10          0.1815E+06
    628      1      4    106       13.80          0.1815E+06
    629      1      4    107       14.00          0.1815E+06
    630      1      4    108       14.60          0.1815E+06
    631      1      4    109       14.90          0.1815E+06
    632      1      4    110       15.20          0.1815E+06
    633      1      4    111       16.30          0.1815E+06
    634      1      4    112       16.80          0.1815E+06
    635      1      4    113       16.50          0.1815E+06
    636      1      4    114       16.10          0.1815E+06
    637      1      4    115       15.90          0.1815E+06
    638      1      4    116       15.60          0.1815E+06
    639      1      4    117       15.70          0.1815E+06
    640      1      4    118       15.60          0.1815E+06
    641      1      4    119       14.90          0.1815E+06
    642      1      4    120       14.40          0.1815E+06
    643      1      4    121       14.00          0.1815E+06
    644      1      4    122       14.90          0.1815E+06
    645      1      4    123       15.90          0.1815E+06
    646      1      4    124       15.90          0.1815E+06
    647      1      4    125       15.90          0.1815E+06
    648      1      4    126       15.30          0.1815E+06
    649      1      4    127       14.60          0.1815E+06
    650      1      4    128       14.00          0.1815E+06
    651      1      4    129       13.30          0.1815E+06
    652      1      4    130       12.40          0.1815E+06
    653      1      4    131       10.81          0.1815E+06
    654      1      4    132       9.520          0.1815E+06
    655      1      4    133       7.670          0.1815E+06
    656      1      4    134       5.050          0.1815E+06
    657      1      4    135       5.760          0.1815E+06
    658      1      4    136       5.690          0.1815E+06
    659      1      4    137       5.730          0.1815E+06
    660      1      4    138       5.780          0.1815E+06
    661      1      4    139       5.840          0.1815E+06
    662      1      4    140       5.800          0.1815E+06
    663      1      4    141       5.760          0.1815E+06
    664      1      4    142       5.820          0.1815E+06
    665      1      4    143       5.730          0.1815E+06
    666      1      4    144       5.730          0.1815E+06
    667      1      4    145       5.550          0.1815E+06
    668      1      4    146       5.420          0.1815E+06
    669      1      4    147       5.260          0.1815E+06
    670      1      4    148       5.170          0.1815E+06
    671      1      4    149       5.320          0.1815E+06
    672      1      4    150       5.590          0.1815E+06
    673      1      4    151       5.130          0.1815E+06
    674      1      4    152       5.230          0.1815E+06
    675      1      4    153       5.230          0.1815E+06
    676      1      4    154       5.190          0.1815E+06
    677      1      4    155       5.090          0.1815E+06
    678      1      4    156       4.840          0.1815E+06
    679      1      4    157       5.260          0.1815E+06
    680      1      4    158       5.190          0.1815E+06
    681      1      4    159       5.000          0.1815E+06
    682      1      4    160       4.980          0.1815E+06
    683      1      4    161       5.030          0.1815E+06
    684      1      4    162       5.070          0.1815E+06
    685      1      4    163       4.920          0.1815E+06
    686      1      4    164       4.960          0.1815E+06
    687      1      4    165       4.920          0.1815E+06
    688      1      4    166       4.940          0.1815E+06
    689      1      4    167       4.780          0.1815E+06
    690      1      4    168       4.840          0.1815E+06
    691      1      4    169       4.940          0.1815E+06
    692      1      4    170       4.760          0.1815E+06
    693      1      4    171       4.630          0.1815E+06
    694      1      4    172       4.730          0.1815E+06
    695      1      4    173       4.760          0.1815E+06
    696      1      4    174       4.550          0.1815E+06
    697      1      5      1       7.360          0.1815E+06
    698      1      5      2       7.280          0.1815E+06
    699      1      5      3       7.030          0.1815E+06
    700      1      5      4       7.050          0.1815E+06
    701      1      5      5       6.610          0.1815E+06
    702      1      5      6       6.170          0.1815E+06
    703      1      5      7       5.410          0.1815E+06
    704      1      5      8       5.410          0.1815E+06
    705      1      5      9       5.410          0.1815E+06
    706      1      5     10       4.410          0.1815E+06
    707      1      5     11       4.410          0.1815E+06
    708      1      5     12       3.410          0.1815E+06
    709      1      5     13       3.400          0.1815E+06
    710      1      5     14       3.410          0.1815E+06
    711      1      5     15       3.410          0.1815E+06
    712      1      5     16       3.410          0.1815E+06
    713      1      5     17       3.410          0.1815E+06
    714      1      5     18       3.410          0.1815E+06
    715      1      5     19       3.410          0.1815E+06
    716      1      5     20       5.410          0.1815E+06
    717      1      5     21       5.410          0.1815E+06
    718      1      5     22       9.210          0.1815E+06
    719      1      5     23       12.52          0.1815E+06
    720      1      5     24       12.43          0.1815E+06
    721      1      5     25       12.26          0.1815E+06
    722      1      5     26       13.27          0.1815E+06
    723      1      5     27       13.68          0.1815E+06
    724      1      5     28       14.14          0.1815E+06
    725      1      5     29       14.68          0.1815E+06
    726      1      5     30       14.72          0.1815E+06
    727      1      5     31       15.40          0.1815E+06
    728      1      5     32       16.00          0.1815E+06
    729      1      5     33       16.72          0.1815E+06
    730      1      5     34       16.78          0.1815E+06
    731      1      5     35       16.42          0.1815E+06
    732      1      5     36       16.39          0.1815E+06
    733      1      5     37       16.60          0.1815E+06
    734      1      5     38       17.86          0.1815E+06
    735      1      5     39       19.14          0.1815E+06
    736      1      5     40       19.11          0.1815E+06
    737      1      5     41       16.71          0.1815E+06
    738      1      5     42       16.12          0.1815E+06
    739      1      5     43       16.29          0.1815E+06
    740      1      5     44       14.73          0.1815E+06
    741      1      5     45       14.84          0.1815E+06
    742      1      5     46       20.14          0.1815E+06
    743      1      5     47       20.59          0.1815E+06
    744      1      5     48       20.40          0.1815E+06
    745      1      5     49       20.42          0.1815E+06
    746      1      5     50       20.22          0.1815E+06
    747      1      5     51       19.50          0.1815E+06
    748      1      5     52       19.15          0.1815E+06
    749      1      5     53       19.13          0.1815E+06
    750      1      5     54       19.50          0.1815E+06
    751      1      5     55       20.60          0.1815E+06
    752      1      5     56       19.62          0.1815E+06
    753      1      5     57       19.25          0.1815E+06
    754      1      5     58       17.97          0.1815E+06
    755      1      5     59       16.71          0.1815E+06
    756      1      5     60       14.85          0.1815E+06
    757      1      5     61       6.340          0.1815E+06
    758      1      5     62       6.190          0.1815E+06
    759      1      5     63       6.050          0.1815E+06
    760      1      5     64       7.230          0.1815E+06
    761      1      5     65       10.06          0.1815E+06
    762      1      5     66       14.35          0.1815E+06
    763      1      5     67       21.70          0.1815E+06
    764      1      5     68       28.21          0.1815E+06
    765      1      5     69       31.80          0.1815E+06
    766      1      5     70       34.47          0.1815E+06
    767      1      5     71       36.18          0.1815E+06
    768      1      5     72       36.22          0.1815E+06
    769      1      5     73       35.40          0.1815E+06
    770      1      5     74       34.80          0.1815E+06
    771      1      5     75       33.40          0.1815E+06
    772      1      5     76       31.90          0.1815E+06
    773      1      5     77       35.20          0.1815E+06
    774      1      5     78       36.20          0.1815E+06
    775      1      5     79       36.90          0.1815E+06
    776      1      5     80       36.90          0.1815E+06
    777      1      5     81       37.70          0.1815E+06
    778      1      5     82       37.70          0.1815E+06
    779      1      5     83       36.70          0.1815E+06
    780      1      5     84       34.60          0.1815E+06
    781      1      5     85       33.90          0.1815E+06
    782      1      5     86       35.20          0.1815E+06
    783      1      5     87       37.40          0.1815E+06
    784      1      5     88       34.60          0.1815E+06
    785      1      5     89       29.30          0.1815E+06
    786      1      5     90       26.00          0.1815E+06
    787      1      5     91       23.40          0.1815E+06
    788      1      5     92       22.90          0.1815E+06
    789      1      5     93       21.70          0.1815E+06
    790      1      5     94       19.80          0.1815E+06
    791      1      5     95       18.70          0.1815E+06
    792      1      5     96       17.90          0.1815E+06
    793      1      5     97       17.40          0.1815E+06
    794      1      5     98       15.40          0.1815E+06
    795      1      5     99       15.20          0.1815E+06
    796      1      5    100       15.00          0.1815E+06
    797      1      5    101       15.00          0.1815E+06
    798      1      5    102       15.10          0.1815E+06
    799      1      5    103       15.50          0.1815E+06
    800      1      5    104       16.30          0.1815E+06
    801      1      5    105       15.50          0.1815E+06
    802      1      5    106       14.90          0.1815E+06
    803      1      5    107       17.30          0.1815E+06
    804      1      5    108       19.90          0.1815E+06
    805      1      5    109       19.90          0.1815E+06
    806      1      5    110       18.10          0.1815E+06
    807      1      5    111       18.00          0.1815E+06
    808      1      5    112       17.20          0.1815E+06
    809      1      5    113       16.00          0.1815E+06
    810      1      5    114       16.30          0.1815E+06
    811      1      5    115       15.80          0.1815E+06
    812      1      5    116       15.30          0.1815E+06
    813      1      5    117       15.00          0.1815E+06
    814      1      5    118       14.20          0.1815E+06
    815      1      5    119       13.50          0.1815E+06
    816      1      5    120       13.40          0.1815E+06
    817      1      5    121       13.60          0.1815E+06
    818      1      5    122       13.30          0.1815E+06
    819      1      5    123       14.60          0.1815E+06
    820      1      5    124       15.70          0.1815E+06
    821      1      5    125       14.40          0.1815E+06
    822      1      5    126       13.70          0.1815E+06
    823      1      5    127       13.80          0.1815E+06
    824      1      5    128       13.90          0.1815E+06
    825      1      5    129       13.40          0.1815E+06
    826      1      5    130       12.20          0.1815E+06
    827      1      5    131       9.970          0.1815E+06
    828      1      5    132       8.230          0.1815E+06
    829      1      5    133       6.730          0.1815E+06
    830      1      5    134       5.000          0.1815E+06
    831      1      5    135       5.670          0.1815E+06
    832      1      5    136       5.800          0.1815E+06
    833      1      5    137       5.840          0.1815E+06
    834      1      5    138       5.860          0.1815E+06
    835      1      5    139       5.820          0.1815E+06
    836      1      5    140       5.800          0.1815E+06
    837      1      5    141       5.860          0.1815E+06
    838      1      5    142       5.780          0.1815E+06
    839      1      5    143       5.690          0.1815E+06
    840      1      5    144       5.590          0.1815E+06
    841      1      5    145       5.530          0.1815E+06
    842      1      5    146       4.840          0.1815E+06
    843      1      5    147       4.980          0.1815E+06
    844      1      5    148       5.130          0.1815E+06
    845      1      5    149       5.320          0.1815E+06
    846      1      5    150       5.210          0.1815E+06
    847      1      5    151       5.070          0.1815E+06
    848      1      5    152       4.960          0.1815E+06
    849      1      5    153       5.320          0.1815E+06
    850      1      5    154       5.150          0.1815E+06
    851      1      5    155       4.650          0.1815E+06
    852      1      5    156       4.630          0.1815E+06
    853      1      5    157       4.690          0.1815E+06
    854      1      5    158       4.960          0.1815E+06
    855      1      5    159       4.780          0.1815E+06
    856      1      5    160       4.840          0.1815E+06
    857      1      5    161       4.900          0.1815E+06
    858      1      5    162       5.030          0.1815E+06
    859      1      5    163       4.900          0.1815E+06
    860      1      5    164       4.920          0.1815E+06
    861      1      5    165       4.880          0.1815E+06
    862      1      5    166       4.880          0.1815E+06
    863      1      5    167       4.940          0.1815E+06
    864      1      5    168       4.860          0.1815E+06
    865      1      5    169       4.800          0.1815E+06
    866      1      5    170       4.650          0.1815E+06
    867      1      5    171       4.650          0.1815E+06
    868      1      5    172       4.690          0.1815E+06
    869      1      5    173       4.510          0.1815E+06
    870      1      5    174       4.670          0.1815E+06
    871      1      6      1       7.760          0.1815E+06
    872      1      6      2       7.460          0.1815E+06
    873      1      6      3       6.590          0.1815E+06
    874      1      6      4       6.650          0.1815E+06
    875      1      6      5       6.230          0.1815E+06
    876      1      6      6       5.400          0.1815E+06
    877      1      6      7       5.410          0.1815E+06
    878      1      6      8       4.410          0.1815E+06
    879      1      6      9       4.410          0.1815E+06
    880      1      6     10       4.410          0.1815E+06
    881      1      6     11       4.410          0.1815E+06
    882      1      6     12       3.410          0.1815E+06
    883      1      6     13       3.410          0.1815E+06
    884      1      6     14       3.410          0.1815E+06
    885      1      6     15       3.410          0.1815E+06
    886      1      6     16       3.410          0.1815E+06
    887      1      6     17       3.410          0.1815E+06
    888      1      6     18       3.410          0.1815E+06
    889      1      6     19       3.410          0.1815E+06
    890      1      6     20       1.410          0.1815E+06
    891      1      6     21       1.410          0.1815E+06
    892      1      6     22       6.940          0.1815E+06
    893      1      6     23       9.220          0.1815E+06
    894      1      6     24       11.46          0.1815E+06
    895      1      6     25       13.35          0.1815E+06
    896      1      6     26       13.43          0.1815E+06
    897      1      6     27       13.31          0.1815E+06
    898      1      6     28       13.56          0.1815E+06
    899      1      6     29       14.43          0.1815E+06
    900      1      6     30       15.23          0.1815E+06
    901      1      6     31       15.28          0.1815E+06
    902      1      6     32       15.35          0.1815E+06
    903      1      6     33       16.25          0.1815E+06
    904      1      6     34       16.81          0.1815E+06
    905      1      6     35       16.55          0.1815E+06
    906      1      6     36       17.18          0.1815E+06
    907      1      6     37       17.54          0.1815E+06
    908      1      6     38       16.54          0.1815E+06
    909      1      6     39       14.80          0.1815E+06
    910      1      6     40       9.900          0.1815E+06
    911      1      6     41       13.65          0.1815E+06
    912      1      6     42       11.55          0.1815E+06
    913      1      6     43       11.90          0.1815E+06
    914      1      6     44       13.22          0.1815E+06
    915      1      6     45       17.04          0.1815E+06
    916      1      6     46       19.30          0.1815E+06
    917      1      6     47       19.01          0.1815E+06
    918      1      6     48       16.98          0.1815E+06
    919      1      6     49       16.67          0.1815E+06
    920      1      6     50       14.21          0.1815E+06
    921      1      6     51       15.64          0.1815E+06
    922      1      6     52       16.22          0.1815E+06
    923      1      6     53       16.88          0.1815E+06
    924      1      6     54       17.21          0.1815E+06
    925      1      6     55       19.22          0.1815E+06
    926      1      6     56       18.50          0.1815E+06
    927      1      6     57       16.97          0.1815E+06
    928      1      6     58       14.88          0.1815E+06
    929      1      6     59       12.59          0.1815E+06
    930      1      6     60       9.850          0.1815E+06
    931      1      6     61       6.150          0.1815E+06
    932      1      6     62       6.360          0.1815E+06
    933      1      6     63       6.340          0.1815E+06
    934      1      6     64       9.960          0.1815E+06
    935      1      6     65       13.07          0.1815E+06
    936      1      6     66       18.81          0.1815E+06
    937      1      6     67       26.40          0.1815E+06
    938      1      6     68       30.12          0.1815E+06
    939      1      6     69       32.81          0.1815E+06
    940      1      6     70       35.09          0.1815E+06
    941      1      6     71       35.95          0.1815E+06
    942      1      6     72       36.39          0.1815E+06
    943      1      6     73       34.70          0.1815E+06
    944      1      6     74       30.50          0.1815E+06
    945      1      6     75       28.70          0.1815E+06
    946      1      6     76       29.00          0.1815E+06
    947      1      6     77       30.60          0.1815E+06
    948      1      6     78       32.70          0.1815E+06
    949      1      6     79       34.40          0.1815E+06
    950      1      6     80       35.20          0.1815E+06
    951      1      6     81       35.70          0.1815E+06
    952      1      6     82       35.30          0.1815E+06
    953      1      6     83       33.90          0.1815E+06
    954      1      6     84       31.10          0.1815E+06
    955      1      6     85       34.40          0.1815E+06
    956      1      6     86       36.60          0.1815E+06
    957      1      6     87       36.00          0.1815E+06
    958      1      6     88       31.80          0.1815E+06
    959      1      6     89       25.20          0.1815E+06
    960      1      6     90       23.00          0.1815E+06
    961      1      6     91       21.70          0.1815E+06
    962      1      6     92       20.70          0.1815E+06
    963      1      6     93       19.40          0.1815E+06
    964      1      6     94       18.40          0.1815E+06
    965      1      6     95       17.40          0.1815E+06
    966      1      6     96       17.50          0.1815E+06
    967      1      6     97       17.40          0.1815E+06
    968      1      6     98       17.00          0.1815E+06
    969      1      6     99       16.60          0.1815E+06
    970      1      6    100       16.00          0.1815E+06
    971      1      6    101       16.40          0.1815E+06
    972      1      6    102       17.00          0.1815E+06
    973      1      6    103       16.60          0.1815E+06
    974      1      6    104       16.40          0.1815E+06
    975      1      6    105       16.40          0.1815E+06
    976      1      6    106       18.30          0.1815E+06
    977      1      6    107       21.80          0.1815E+06
    978      1      6    108       26.60          0.1815E+06
    979      1      6    109       27.00          0.1815E+06
    980      1      6    110       23.40          0.1815E+06
    981      1      6    111       19.40          0.1815E+06
    982      1      6    112       16.00          0.1815E+06
    983      1      6    113       14.50          0.1815E+06
    984      1      6    114       14.20          0.1815E+06
    985      1      6    115       13.30          0.1815E+06
    986      1      6    116       13.40          0.1815E+06
    987      1      6    117       12.90          0.1815E+06
    988      1      6    118       12.20          0.1815E+06
    989      1      6    119       12.50          0.1815E+06
    990      1      6    120       12.80          0.1815E+06
    991      1      6    121       13.00          0.1815E+06
    992      1      6    122       13.00          0.1815E+06
    993      1      6    123       10.45          0.1815E+06
    994      1      6    124       12.94          0.1815E+06
    995      1      6    125       10.94          0.1815E+06
    996      1      6    126       11.87          0.1815E+06
    997      1      6    127       9.630          0.1815E+06
    998      1      6    128       12.30          0.1815E+06
    999      1      6    129       12.40          0.1815E+06
   1000      1      6    130       10.64          0.1815E+06
   1001      1      6    131       8.610          0.1815E+06
   1002      1      6    132       6.860          0.1815E+06
   1003      1      6    133       5.320          0.1815E+06
   1004      1      6    134       5.730          0.1815E+06
   1005      1      6    135       5.780          0.1815E+06
   1006      1      6    136       5.880          0.1815E+06
   1007      1      6    137       5.800          0.1815E+06
   1008      1      6    138       5.960          0.1815E+06
   1009      1      6    139       5.900          0.1815E+06
   1010      1      6    140       5.900          0.1815E+06
   1011      1      6    141       5.880          0.1815E+06
   1012      1      6    142       5.760          0.1815E+06
   1013      1      6    143       6.550          0.1815E+06
   1014      1      6    144       6.250          0.1815E+06
   1015      1      6    145       5.510          0.1815E+06
   1016      1      6    146       5.380          0.1815E+06
   1017      1      6    147       5.530          0.1815E+06
   1018      1      6    148       5.710          0.1815E+06
   1019      1      6    149       5.730          0.1815E+06
   1020      1      6    150       5.760          0.1815E+06
   1021      1      6    151       5.610          0.1815E+06
   1022      1      6    152       9.190          0.1815E+06
   1023      1      6    153       10.33          0.1815E+06
   1024      1      6    154       9.030          0.1815E+06
   1025      1      6    155       9.250          0.1815E+06
   1026      1      6    156       7.130          0.1815E+06
   1027      1      6    157       5.710          0.1815E+06
   1028      1      6    158       5.940          0.1815E+06
   1029      1      6    159       4.320          0.1815E+06
   1030      1      6    160       4.730          0.1815E+06
   1031      1      6    161       4.860          0.1815E+06
   1032      1      6    162       4.960          0.1815E+06
   1033      1      6    163       4.940          0.1815E+06
   1034      1      6    164       4.940          0.1815E+06
   1035      1      6    165       4.800          0.1815E+06
   1036      1      6    166       4.800          0.1815E+06
   1037      1      6    167       4.630          0.1815E+06
   1038      1      6    168       4.480          0.1815E+06
   1039      1      6    169       4.530          0.1815E+06
   1040      1      6    170       4.590          0.1815E+06
   1041      1      6    171       4.480          0.1815E+06
   1042      1      6    172       4.030          0.1815E+06
   1043      1      6    173       4.360          0.1815E+06
   1044      1      6    174       4.760          0.1815E+06
   1045      1      7      1       7.210          0.1815E+06
   1046      1      7      2       7.960          0.1815E+06
   1047      1      7      3       6.820          0.1815E+06
   1048      1      7      4       6.730          0.1815E+06
   1049      1      7      5       6.750          0.1815E+06
   1050      1      7      6       5.410          0.1815E+06
   1051      1      7      7       4.410          0.1815E+06
   1052      1      7      8       5.410          0.1815E+06
   1053      1      7      9       5.410          0.1815E+06
   1054      1      7     10       5.410          0.1815E+06
   1055      1      7     11       4.410          0.1815E+06
   1056      1      7     12       3.410          0.1815E+06
   1057      1      7     13       3.410          0.1815E+06
   1058      1      7     14       3.410          0.1815E+06
   1059      1      7     15       3.410          0.1815E+06
   1060      1      7     16       3.410          0.1815E+06
   1061      1      7     17       3.410          0.1815E+06
   1062      1      7     18       4.410          0.1815E+06
   1063      1      7     19       4.500          0.1815E+06
   1064      1      7     20       2.410          0.1815E+06
   1065      1      7     21       2.410          0.1815E+06
   1066      1      7     22       2.410          0.1815E+06
   1067      1      7     23       5.410          0.1815E+06
   1068      1      7     24       12.22          0.1815E+06
   1069      1      7     25       12.63          0.1815E+06
   1070      1      7     26       13.75          0.1815E+06
   1071      1      7     27       14.30          0.1815E+06
   1072      1      7     28       14.06          0.1815E+06
   1073      1      7     29       14.14          0.1815E+06
   1074      1      7     30       14.73          0.1815E+06
   1075      1      7     31       15.06          0.1815E+06
   1076      1      7     32       14.97          0.1815E+06
   1077      1      7     33       15.47          0.1815E+06
   1078      1      7     34       15.60          0.1815E+06
   1079      1      7     35       14.60          0.1815E+06
   1080      1      7     36       17.14          0.1815E+06
   1081      1      7     37       17.75          0.1815E+06
   1082      1      7     38       16.35          0.1815E+06
   1083      1      7     39       12.42          0.1815E+06
   1084      1      7     40       14.64          0.1815E+06
   1085      1      7     41       17.14          0.1815E+06
   1086      1      7     42       17.37          0.1815E+06
   1087      1      7     43       17.35          0.1815E+06
   1088      1      7     44       17.25          0.1815E+06
   1089      1      7     45       17.75          0.1815E+06
   1090      1      7     46       18.51          0.1815E+06
   1091      1      7     47       18.04          0.1815E+06
   1092      1      7     48       14.01          0.1815E+06
   1093      1      7     49       12.77          0.1815E+06
   1094      1      7     50       11.35          0.1815E+06
   1095      1      7     51       11.21          0.1815E+06
   1096      1      7     52       11.82          0.1815E+06
   1097      1      7     53       12.60          0.1815E+06
   1098      1      7     54       14.96          0.1815E+06
   1099      1      7     55       17.94          0.1815E+06
   1100      1      7     56       13.93          0.1815E+06
   1101      1      7     57       11.73          0.1815E+06
   1102      1      7     58       8.640          0.1815E+06
   1103      1      7     59       5.980          0.1815E+06
   1104      1      7     60       5.980          0.1815E+06
   1105      1      7     61       6.050          0.1815E+06
   1106      1      7     62       6.090          0.1815E+06
   1107      1      7     63       6.900          0.1815E+06
   1108      1      7     64       10.56          0.1815E+06
   1109      1      7     65       16.65          0.1815E+06
   1110      1      7     66       24.45          0.1815E+06
   1111      1      7     67       28.52          0.1815E+06
   1112      1      7     68       30.34          0.1815E+06
   1113      1      7     69       32.61          0.1815E+06
   1114      1      7     70       34.06          0.1815E+06
   1115      1      7     71       35.29          0.1815E+06
   1116      1      7     72       35.63          0.1815E+06
   1117      1      7     73       32.50          0.1815E+06
   1118      1      7     74       28.90          0.1815E+06
   1119      1      7     75       26.20          0.1815E+06
   1120      1      7     76       25.30          0.1815E+06
   1121      1      7     77       25.50          0.1815E+06
   1122      1      7     78       28.20          0.1815E+06
   1123      1      7     79       30.60          0.1815E+06
   1124      1      7     80       32.40          0.1815E+06
   1125      1      7     81       32.00          0.1815E+06
   1126      1      7     82       30.80          0.1815E+06
   1127      1      7     83       29.90          0.1815E+06
   1128      1      7     84       30.00          0.1815E+06
   1129      1      7     85       33.90          0.1815E+06
   1130      1      7     86       35.50          0.1815E+06
   1131      1      7     87       32.80          0.1815E+06
   1132      1      7     88       27.60          0.1815E+06
   1133      1      7     89       22.80          0.1815E+06
   1134      1      7     90       20.80          0.1815E+06
   1135      1      7     91       20.30          0.1815E+06
   1136      1      7     92       20.30          0.1815E+06
   1137      1      7     93       19.50          0.1815E+06
   1138      1      7     94       17.70          0.1815E+06
   1139      1      7     95       20.00          0.1815E+06
   1140      1      7     96       19.70          0.1815E+06
   1141      1      7     97       19.30          0.1815E+06
   1142      1      7     98       18.50          0.1815E+06
   1143      1      7     99       17.90          0.1815E+06
   1144      1      7    100       17.60          0.1815E+06
   1145      1      7    101       17.90          0.1815E+06
   1146      1      7    102       18.20          0.1815E+06
   1147      1      7    103       17.60          0.1815E+06
   1148      1      7    104       17.90          0.1815E+06
   1149      1      7    105       20.60          0.1815E+06
   1150      1      7    106       24.40          0.1815E+06
   1151      1      7    107       29.10          0.1815E+06
   1152      1      7    108       31.00          0.1815E+06
   1153      1      7    109       30.50          0.1815E+06
   1154      1      7    110       28.30          0.1815E+06
   1155      1      7    111       22.90          0.1815E+06
   1156      1      7    112       17.00          0.1815E+06
   1157      1      7    113       13.30          0.1815E+06
   1158      1      7    114       12.40          0.1815E+06
   1159      1      7    115       11.80          0.1815E+06
   1160      1      7    116       10.79          0.1815E+06
   1161      1      7    117       9.890          0.1815E+06
   1162      1      7    118       11.90          0.1815E+06
   1163      1      7    119       12.90          0.1815E+06
   1164      1      7    120       13.20          0.1815E+06
   1165      1      7    121       12.80          0.1815E+06
   1166      1      7    122       11.24          0.1815E+06
   1167      1      7    123       9.520          0.1815E+06
   1168      1      7    124       9.720          0.1815E+06
   1169      1      7    125       9.760          0.1815E+06
   1170      1      7    126       9.210          0.1815E+06
   1171      1      7    127       7.420          0.1815E+06
   1172      1      7    128       8.850          0.1815E+06
   1173      1      7    129       10.60          0.1815E+06
   1174      1      7    130       9.520          0.1815E+06
   1175      1      7    131       6.960          0.1815E+06
   1176      1      7    132       5.820          0.1815E+06
   1177      1      7    133       5.730          0.1815E+06
   1178      1      7    134       5.860          0.1815E+06
   1179      1      7    135       5.840          0.1815E+06
   1180      1      7    136       5.820          0.1815E+06
   1181      1      7    137       5.860          0.1815E+06
   1182      1      7    138       6.050          0.1815E+06
   1183      1      7    139       6.090          0.1815E+06
   1184      1      7    140       9.140          0.1815E+06
   1185      1      7    141       15.26          0.1815E+06
   1186      1      7    142       20.32          0.1815E+06
   1187      1      7    143       22.95          0.1815E+06
   1188      1      7    144       15.98          0.1815E+06
   1189      1      7    145       9.510          0.1815E+06
   1190      1      7    146       10.13          0.1815E+06
   1191      1      7    147       7.300          0.1815E+06
   1192      1      7    148       9.270          0.1815E+06
   1193      1      7    149       7.530          0.1815E+06
   1194      1      7    150       8.390          0.1815E+06
   1195      1      7    151       9.930          0.1815E+06
   1196      1      7    152       16.40          0.1815E+06
   1197      1      7    153       22.90          0.1815E+06
   1198      1      7    154       24.90          0.1815E+06
   1199      1      7    155       21.80          0.1815E+06
   1200      1      7    156       15.96          0.1815E+06
   1201      1      7    157       10.92          0.1815E+06
   1202      1      7    158       9.020          0.1815E+06
   1203      1      7    159       6.260          0.1815E+06
   1204      1      7    160       4.960          0.1815E+06
   1205      1      7    161       4.710          0.1815E+06
   1206      1      7    162       4.820          0.1815E+06
   1207      1      7    163       4.690          0.1815E+06
   1208      1      7    164       5.030          0.1815E+06
   1209      1      7    165       4.730          0.1815E+06
   1210      1      7    166       4.920          0.1815E+06
   1211      1      7    167       5.320          0.1815E+06
   1212      1      7    168       4.760          0.1815E+06
   1213      1      7    169       4.820          0.1815E+06
   1214      1      7    170       5.090          0.1815E+06
   1215      1      7    171       4.650          0.1815E+06
   1216      1      7    172       4.780          0.1815E+06
   1217      1      7    173       7.380          0.1815E+06
   1218      1      7    174       10.11          0.1815E+06
   1219      1      8      1       7.690          0.1815E+06
   1220      1      8      2       7.320          0.1815E+06
   1221      1      8      3       6.900          0.1815E+06
   1222      1      8      4       7.340          0.1815E+06
   1223      1      8      5       6.980          0.1815E+06
   1224      1      8      6       5.410          0.1815E+06
   1225      1      8      7       4.410          0.1815E+06
   1226      1      8      8       5.410          0.1815E+06
   1227      1      8      9       5.410          0.1815E+06
   1228      1      8     10       5.410          0.1815E+06
   1229      1      8     11       4.410          0.1815E+06
   1230      1      8     12       3.410          0.1815E+06
   1231      1      8     13       3.410          0.1815E+06
   1232      1      8     14       3.410          0.1815E+06
   1233      1      8     15       3.410          0.1815E+06
   1234      1      8     16       3.410          0.1815E+06
   1235      1      8     17       3.410          0.1815E+06
   1236      1      8     18       4.410          0.1815E+06
   1237      1      8     19       4.610          0.1815E+06
   1238      1      8     20       2.410          0.1815E+06
   1239      1      8     21       2.410          0.1815E+06
   1240      1      8     22       2.410          0.1815E+06
   1241      1      8     23       5.410          0.1815E+06
   1242      1      8     24       8.850          0.1815E+06
   1243      1      8     25       12.56          0.1815E+06
   1244      1      8     26       14.25          0.1815E+06
   1245      1      8     27       14.35          0.1815E+06
   1246      1      8     28       14.14          0.1815E+06
   1247      1      8     29       14.11          0.1815E+06
   1248      1      8     30       14.25          0.1815E+06
   1249      1      8     31       14.81          0.1815E+06
   1250      1      8     32       14.75          0.1815E+06
   1251      1      8     33       15.26          0.1815E+06
   1252      1      8     34       15.18          0.1815E+06
   1253      1      8     35       13.53          0.1815E+06
   1254      1      8     36       15.85          0.1815E+06
   1255      1      8     37       16.30          0.1815E+06
   1256      1      8     38       15.64          0.1815E+06
   1257      1      8     39       11.18          0.1815E+06
   1258      1      8     40       17.59          0.1815E+06
   1259      1      8     41       15.68          0.1815E+06
   1260      1      8     42       18.21          0.1815E+06
   1261      1      8     43       18.45          0.1815E+06
   1262      1      8     44       18.61          0.1815E+06
   1263      1      8     45       18.07          0.1815E+06
   1264      1      8     46       17.69          0.1815E+06
   1265      1      8     47       15.71          0.1815E+06
   1266      1      8     48       12.60          0.1815E+06
   1267      1      8     49       9.640          0.1815E+06
   1268      1      8     50       11.34          0.1815E+06
   1269      1      8     51       9.020          0.1815E+06
   1270      1      8     52       10.19          0.1815E+06
   1271      1      8     53       9.350          0.1815E+06
   1272      1      8     54       12.32          0.1815E+06
   1273      1      8     55       12.52          0.1815E+06
   1274      1      8     56       9.280          0.1815E+06
   1275      1      8     57       5.820          0.1815E+06
   1276      1      8     58       6.800          0.1815E+06
   1277      1      8     59       6.690          0.1815E+06
   1278      1      8     60       6.110          0.1815E+06
   1279      1      8     61       6.090          0.1815E+06
   1280      1      8     62       6.320          0.1815E+06
   1281      1      8     63       6.550          0.1815E+06
   1282      1      8     64       12.34          0.1815E+06
   1283      1      8     65       20.10          0.1815E+06
   1284      1      8     66       25.48          0.1815E+06
   1285      1      8     67       28.01          0.1815E+06
   1286      1      8     68       29.37          0.1815E+06
   1287      1      8     69       31.01          0.1815E+06
   1288      1      8     70       32.66          0.1815E+06
   1289      1      8     71       33.83          0.1815E+06
   1290      1      8     72       33.50          0.1815E+06
   1291      1      8     73       31.48          0.1815E+06
   1292      1      8     74       28.10          0.1815E+06
   1293      1      8     75       25.10          0.1815E+06
   1294      1      8     76       23.20          0.1815E+06
   1295      1      8     77       22.50          0.1815E+06
   1296      1      8     78       24.00          0.1815E+06
   1297      1      8     79       26.70          0.1815E+06
   1298      1      8     80       28.30          0.1815E+06
   1299      1      8     81       27.90          0.1815E+06
   1300      1      8     82       26.40          0.1815E+06
   1301      1      8     83       27.40          0.1815E+06
   1302      1      8     84       30.70          0.1815E+06
   1303      1      8     85       32.00          0.1815E+06
   1304      1      8     86       31.90          0.1815E+06
   1305      1      8     87       28.60          0.1815E+06
   1306      1      8     88       23.50          0.1815E+06
   1307      1      8     89       19.90          0.1815E+06
   1308      1      8     90       18.90          0.1815E+06
   1309      1      8     91       18.70          0.1815E+06
   1310      1      8     92       18.20          0.1815E+06
   1311      1      8     93       17.90          0.1815E+06
   1312      1      8     94       20.80          0.1815E+06
   1313      1      8     95       22.30          0.1815E+06
   1314      1      8     96       22.00          0.1815E+06
   1315      1      8     97       21.00          0.1815E+06
   1316      1      8     98       19.80          0.1815E+06
   1317      1      8     99       19.40          0.1815E+06
   1318      1      8    100       17.90          0.1815E+06
   1319      1      8    101       17.90          0.1815E+06
   1320      1      8    102       17.80          0.1815E+06
   1321      1      8    103       18.30          0.1815E+06
   1322      1      8    104       21.30          0.1815E+06
   1323      1      8    105       25.40          0.1815E+06
   1324      1      8    106       29.60          0.1815E+06
   1325      1      8    107       32.20          0.1815E+06
   1326      1      8    108       32.00          0.1815E+06
   1327      1      8    109       30.70          0.1815E+06
   1328      1      8    110       28.40          0.1815E+06
   1329      1      8    111       24.70          0.1815E+06
   1330      1      8    112       18.00          0.1815E+06
   1331      1      8    113       12.42          0.1815E+06
   1332      1      8    114       9.750          0.1815E+06
   1333      1      8    115       9.560          0.1815E+06
   1334      1      8    116       9.400          0.1815E+06
   1335      1      8    117       9.970          0.1815E+06
   1336      1      8    118       11.60          0.1815E+06
   1337      1      8    119       12.40          0.1815E+06
   1338      1      8    120       12.24          0.1815E+06
   1339      1      8    121       10.22          0.1815E+06
   1340      1      8    122       10.06          0.1815E+06
   1341      1      8    123       9.180          0.1815E+06
   1342      1      8    124       7.980          0.1815E+06
   1343      1      8    125       7.510          0.1815E+06
   1344      1      8    126       7.940          0.1815E+06
   1345      1      8    127       6.940          0.1815E+06
   1346      1      8    128       7.530          0.1815E+06
   1347      1      8    129       8.640          0.1815E+06
   1348      1      8    130       7.260          0.1815E+06
   1349      1      8    131       6.610          0.1815E+06
   1350      1      8    132       5.050          0.1815E+06
   1351      1      8    133       5.780          0.1815E+06
   1352      1      8    134       5.820          0.1815E+06
   1353      1      8    135       5.860          0.1815E+06
   1354      1      8    136       5.920          0.1815E+06
   1355      1      8    137       5.960          0.1815E+06
   1356      1      8    138       8.570          0.1815E+06
   1357      1      8    139       15.14          0.1815E+06
   1358      1      8    140       23.70          0.1815E+06
   1359      1      8    141       29.40          0.1815E+06
   1360      1      8    142       31.80          0.1815E+06
   1361      1      8    143       30.40          0.1815E+06
   1362      1      8    144       27.00          0.1815E+06
   1363      1      8    145       22.50          0.1815E+06
   1364      1      8    146       15.70          0.1815E+06
   1365      1      8    147       11.72          0.1815E+06
   1366      1      8    148       13.30          0.1815E+06
   1367      1      8    149       13.55          0.1815E+06
   1368      1      8    150       12.99          0.1815E+06
   1369      1      8    151       16.40          0.1815E+06
   1370      1      8    152       25.00          0.1815E+06
   1371      1      8    153       32.10          0.1815E+06
   1372      1      8    154       33.10          0.1815E+06
   1373      1      8    155       29.80          0.1815E+06
   1374      1      8    156       27.00          0.1815E+06
   1375      1      8    157       17.00          0.1815E+06
   1376      1      8    158       12.90          0.1815E+06
   1377      1      8    159       10.30          0.1815E+06
   1378      1      8    160       6.980          0.1815E+06
   1379      1      8    161       6.570          0.1815E+06
   1380      1      8    162       6.110          0.1815E+06
   1381      1      8    163       6.710          0.1815E+06
   1382      1      8    164       9.740          0.1815E+06
   1383      1      8    165       10.09          0.1815E+06
   1384      1      8    166       8.810          0.1815E+06
   1385      1      8    167       7.440          0.1815E+06
   1386      1      8    168       6.500          0.1815E+06
   1387      1      8    169       5.420          0.1815E+06
   1388      1      8    170       6.010          0.1815E+06
   1389      1      8    171       5.610          0.1815E+06
   1390      1      8    172       7.980          0.1815E+06
   1391      1      8    173       8.770          0.1815E+06
   1392      1      8    174       13.70          0.1815E+06
   1393      1      9      1       7.730          0.1815E+06
   1394      1      9      2       8.050          0.1815E+06
   1395      1      9      3       7.340          0.1815E+06
   1396      1      9      4       5.460          0.1815E+06
   1397      1      9      5       5.420          0.1815E+06
   1398      1      9      6       6.910          0.1815E+06
   1399      1      9      7       4.410          0.1815E+06
   1400      1      9      8       5.410          0.1815E+06
   1401      1      9      9       5.410          0.1815E+06
   1402      1      9     10       5.410          0.1815E+06
   1403      1      9     11       4.410          0.1815E+06
   1404      1      9     12       4.410          0.1815E+06
   1405      1      9     13       4.410          0.1815E+06
   1406      1      9     14       4.400          0.1815E+06
   1407      1      9     15       4.400          0.1815E+06
   1408      1      9     16       3.410          0.1815E+06
   1409      1      9     17       4.410          0.1815E+06
   1410      1      9     18       6.110          0.1815E+06
   1411      1      9     19       2.410          0.1815E+06
   1412      1      9     20       2.410          0.1815E+06
   1413      1      9     21       2.410          0.1815E+06
   1414      1      9     22       2.410          0.1815E+06
   1415      1      9     23       3.410          0.1815E+06
   1416      1      9     24       7.320          0.1815E+06
   1417      1      9     25       11.14          0.1815E+06
   1418      1      9     26       13.47          0.1815E+06
   1419      1      9     27       14.30          0.1815E+06
   1420      1      9     28       13.52          0.1815E+06
   1421      1      9     29       13.25          0.1815E+06
   1422      1      9     30       13.60          0.1815E+06
   1423      1      9     31       14.09          0.1815E+06
   1424      1      9     32       14.06          0.1815E+06
   1425      1      9     33       14.64          0.1815E+06
   1426      1      9     34       14.64          0.1815E+06
   1427      1      9     35       13.88          0.1815E+06
   1428      1      9     36       11.21          0.1815E+06
   1429      1      9     37       14.35          0.1815E+06
   1430      1      9     38       7.940          0.1815E+06
   1431      1      9     39       14.64          0.1815E+06
   1432      1      9     40       16.87          0.1815E+06
   1433      1      9     41       14.57          0.1815E+06
   1434      1      9     42       17.92          0.1815E+06
   1435      1      9     43       18.95          0.1815E+06
   1436      1      9     44       19.90          0.1815E+06
   1437      1      9     45       18.93          0.1815E+06
   1438      1      9     46       15.89          0.1815E+06
   1439      1      9     47       13.19          0.1815E+06
   1440      1      9     48       10.21          0.1815E+06
   1441      1      9     49       7.960          0.1815E+06
   1442      1      9     50       9.250          0.1815E+06
   1443      1      9     51       7.010          0.1815E+06
   1444      1      9     52       9.000          0.1815E+06
   1445      1      9     53       6.590          0.1815E+06
   1446      1      9     54       6.550          0.1815E+06
   1447      1      9     55       4.940          0.1815E+06
   1448      1      9     56       5.590          0.1815E+06
   1449      1      9     57       5.690          0.1815E+06
   1450      1      9     58       6.670          0.1815E+06
   1451      1      9     59       8.770          0.1815E+06
   1452      1      9     60       9.630          0.1815E+06
   1453      1      9     61       10.51          0.1815E+06
   1454      1      9     62       8.710          0.1815E+06
   1455      1      9     63       6.730          0.1815E+06
   1456      1      9     64       10.77          0.1815E+06
   1457      1      9     65       20.54          0.1815E+06
   1458      1      9     66       24.52          0.1815E+06
   1459      1      9     67       25.69          0.1815E+06
   1460      1      9     68       26.51          0.1815E+06
   1461      1      9     69       27.67          0.1815E+06
   1462      1      9     70       29.38          0.1815E+06
   1463      1      9     71       29.20          0.1815E+06
   1464      1      9     72       30.19          0.1815E+06
   1465      1      9     73       30.68          0.1815E+06
   1466      1      9     74       27.90          0.1815E+06
   1467      1      9     75       24.30          0.1815E+06
   1468      1      9     76       22.00          0.1815E+06
   1469      1      9     77       20.80          0.1815E+06
   1470      1      9     78       20.90          0.1815E+06
   1471      1      9     79       22.60          0.1815E+06
   1472      1      9     80       24.70          0.1815E+06
   1473      1      9     81       24.60          0.1815E+06
   1474      1      9     82       24.50          0.1815E+06
   1475      1      9     83       26.80          0.1815E+06
   1476      1      9     84       29.10          0.1815E+06
   1477      1      9     85       28.20          0.1815E+06
   1478      1      9     86       27.00          0.1815E+06
   1479      1      9     87       24.50          0.1815E+06
   1480      1      9     88       21.20          0.1815E+06
   1481      1      9     89       18.30          0.1815E+06
   1482      1      9     90       17.40          0.1815E+06
   1483      1      9     91       17.30          0.1815E+06
   1484      1      9     92       17.80          0.1815E+06
   1485      1      9     93       18.70          0.1815E+06
   1486      1      9     94       20.80          0.1815E+06
   1487      1      9     95       22.70          0.1815E+06
   1488      1      9     96       22.90          0.1815E+06
   1489      1      9     97       22.10          0.1815E+06
   1490      1      9     98       21.30          0.1815E+06
   1491      1      9     99       20.80          0.1815E+06
   1492      1      9    100       19.40          0.1815E+06
   1493      1      9    101       18.60          0.1815E+06
   1494      1      9    102       18.60          0.1815E+06
   1495      1      9    103       20.90          0.1815E+06
   1496      1      9    104       24.30          0.1815E+06
   1497      1      9    105       28.80          0.1815E+06
   1498      1      9    106       31.50          0.1815E+06
   1499      1      9    107       32.00          0.1815E+06
   1500      1      9    108       31.30          0.1815E+06
   1501      1      9    109       29.30          0.1815E+06
   1502      1      9    110       26.30          0.1815E+06
   1503      1      9    111       22.60          0.1815E+06
   1504      1      9    112       16.40          0.1815E+06
   1505      1      9    113       11.10          0.1815E+06
   1506      1      9    114       9.190          0.1815E+06
   1507      1      9    115       8.310          0.1815E+06
   1508      1      9    116       7.980          0.1815E+06
   1509      1      9    117       9.750          0.1815E+06
   1510      1      9    118       10.70          0.1815E+06
   1511      1      9    119       11.01          0.1815E+06
   1512      1      9    120       10.03          0.1815E+06
   1513      1      9    121       8.690          0.1815E+06
   1514      1      9    122       8.270          0.1815E+06
   1515      1      9    123       8.390          0.1815E+06
   1516      1      9    124       7.630          0.1815E+06
   1517      1      9    125       7.340          0.1815E+06
   1518      1      9    126       6.920          0.1815E+06
   1519      1      9    127       6.360          0.1815E+06
   1520      1      9    128       6.050          0.1815E+06
   1521      1      9    129       6.210          0.1815E+06
   1522      1      9    130       6.280          0.1815E+06
   1523      1      9    131       5.820          0.1815E+06
   1524      1      9    132       5.820          0.1815E+06
   1525      1      9    133       5.880          0.1815E+06
   1526      1      9    134       5.920          0.1815E+06
   1527      1      9    135       6.050          0.1815E+06
   1528      1      9    136       6.280          0.1815E+06
   1529      1      9    137       7.420          0.1815E+06
   1530      1      9    138       13.77          0.1815E+06
   1531      1      9    139       23.30          0.1815E+06
   1532      1      9    140       29.80          0.1815E+06
   1533      1      9    141       33.30          0.1815E+06
   1534      1      9    142       34.00          0.1815E+06
   1535      1      9    143       33.00          0.1815E+06
   1536      1      9    144       29.80          0.1815E+06
   1537      1      9    145       24.40          0.1815E+06
   1538      1      9    146       17.10          0.1815E+06
   1539      1      9    147       20.60          0.1815E+06
   1540      1      9    148       18.50          0.1815E+06
   1541      1      9    149       21.60          0.1815E+06
   1542      1      9    150       25.00          0.1815E+06
   1543      1      9    151       29.20          0.1815E+06
   1544      1      9    152       33.10          0.1815E+06
   1545      1      9    153       35.70          0.1815E+06
   1546      1      9    154       37.30          0.1815E+06
   1547      1      9    155       35.10          0.1815E+06
   1548      1      9    156       33.40          0.1815E+06
   1549      1      9    157       27.80          0.1815E+06
   1550      1      9    158       20.40          0.1815E+06
   1551      1      9    159       14.50          0.1815E+06
   1552      1      9    160       11.87          0.1815E+06
   1553      1      9    161       9.700          0.1815E+06
   1554      1      9    162       9.610          0.1815E+06
   1555      1      9    163       10.82          0.1815E+06
   1556      1      9    164       16.60          0.1815E+06
   1557      1      9    165       16.20          0.1815E+06
   1558      1      9    166       13.90          0.1815E+06
   1559      1      9    167       12.34          0.1815E+06
   1560      1      9    168       10.98          0.1815E+06
   1561      1      9    169       10.34          0.1815E+06
   1562      1      9    170       9.640          0.1815E+06
   1563      1      9    171       8.690          0.1815E+06
   1564      1      9    172       10.46          0.1815E+06
   1565      1      9    173       11.86          0.1815E+06
   1566      1      9    174       15.70          0.1815E+06
   1567      1     10      1       7.610          0.1815E+06
   1568      1     10      2       6.750          0.1815E+06
   1569      1     10      3       6.190          0.1815E+06
   1570      1     10      4       6.570          0.1815E+06
   1571      1     10      5       5.420          0.1815E+06
   1572      1     10      6       6.910          0.1815E+06
   1573      1     10      7       7.460          0.1815E+06
   1574      1     10      8       6.110          0.1815E+06
   1575      1     10      9       5.610          0.1815E+06
   1576      1     10     10       6.410          0.1815E+06
   1577      1     10     11       5.410          0.1815E+06
   1578      1     10     12       4.410          0.1815E+06
   1579      1     10     13       3.410          0.1815E+06
   1580      1     10     14       3.410          0.1815E+06
   1581      1     10     15       3.410          0.1815E+06
   1582      1     10     16       4.480          0.1815E+06
   1583      1     10     17       5.410          0.1815E+06
   1584      1     10     18       2.410          0.1815E+06
   1585      1     10     19       2.410          0.1815E+06
   1586      1     10     20       2.410          0.1815E+06
   1587      1     10     21       2.410          0.1815E+06
   1588      1     10     22       2.420          0.1815E+06
   1589      1     10     23       3.410          0.1815E+06
   1590      1     10     24       4.410          0.1815E+06
   1591      1     10     25       9.640          0.1815E+06
   1592      1     10     26       11.97          0.1815E+06
   1593      1     10     27       12.50          0.1815E+06
   1594      1     10     28       12.44          0.1815E+06
   1595      1     10     29       11.82          0.1815E+06
   1596      1     10     30       13.09          0.1815E+06
   1597      1     10     31       12.97          0.1815E+06
   1598      1     10     32       11.89          0.1815E+06
   1599      1     10     33       12.25          0.1815E+06
   1600      1     10     34       12.55          0.1815E+06
   1601      1     10     35       12.90          0.1815E+06
   1602      1     10     36       11.26          0.1815E+06
   1603      1     10     37       7.230          0.1815E+06
   1604      1     10     38       10.26          0.1815E+06
   1605      1     10     39       13.82          0.1815E+06
   1606      1     10     40       15.03          0.1815E+06
   1607      1     10     41       13.68          0.1815E+06
   1608      1     10     42       17.37          0.1815E+06
   1609      1     10     43       19.39          0.1815E+06
   1610      1     10     44       18.68          0.1815E+06
   1611      1     10     45       15.81          0.1815E+06
   1612      1     10     46       10.77          0.1815E+06
   1613      1     10     47       10.90          0.1815E+06
   1614      1     10     48       8.600          0.1815E+06
   1615      1     10     49       5.590          0.1815E+06
   1616      1     10     50       6.260          0.1815E+06
   1617      1     10     51       6.650          0.1815E+06
   1618      1     10     52       5.730          0.1815E+06
   1619      1     10     53       6.210          0.1815E+06
   1620      1     10     54       6.070          0.1815E+06
   1621      1     10     55       5.530          0.1815E+06
   1622      1     10     56       5.010          0.1815E+06
   1623      1     10     57       6.710          0.1815E+06
   1624      1     10     58       9.270          0.1815E+06
   1625      1     10     59       10.92          0.1815E+06
   1626      1     10     60       14.21          0.1815E+06
   1627      1     10     61       12.81          0.1815E+06
   1628      1     10     62       9.760          0.1815E+06
   1629      1     10     63       10.14          0.1815E+06
   1630      1     10     64       9.440          0.1815E+06
   1631      1     10     65       20.45          0.1815E+06
   1632      1     10     66       22.04          0.1815E+06
   1633      1     10     67       21.32          0.1815E+06
   1634      1     10     68       20.40          0.1815E+06
   1635      1     10     69       20.86          0.1815E+06
   1636      1     10     70       23.01          0.1815E+06
   1637      1     10     71       23.95          0.1815E+06
   1638      1     10     72       26.15          0.1815E+06
   1639      1     10     73       28.68          0.1815E+06
   1640      1     10     74       28.00          0.1815E+06
   1641      1     10     75       24.80          0.1815E+06
   1642      1     10     76       21.90          0.1815E+06
   1643      1     10     77       20.20          0.1815E+06
   1644      1     10     78       18.70          0.1815E+06
   1645      1     10     79       19.60          0.1815E+06
   1646      1     10     80       21.40          0.1815E+06
   1647      1     10     81       21.00          0.1815E+06
   1648      1     10     82       23.50          0.1815E+06
   1649      1     10     83       25.50          0.1815E+06
   1650      1     10     84       25.50          0.1815E+06
   1651      1     10     85       25.00          0.1815E+06
   1652      1     10     86       22.70          0.1815E+06
   1653      1     10     87       19.90          0.1815E+06
   1654      1     10     88       18.70          0.1815E+06
   1655      1     10     89       17.40          0.1815E+06
   1656      1     10     90       17.50          0.1815E+06
   1657      1     10     91       18.30          0.1815E+06
   1658      1     10     92       19.70          0.1815E+06
   1659      1     10     93       21.00          0.1815E+06
   1660      1     10     94       22.70          0.1815E+06
   1661      1     10     95       24.00          0.1815E+06
   1662      1     10     96       24.30          0.1815E+06
   1663      1     10     97       22.50          0.1815E+06
   1664      1     10     98       20.80          0.1815E+06
   1665      1     10     99       20.40          0.1815E+06
   1666      1     10    100       19.90          0.1815E+06
   1667      1     10    101       20.40          0.1815E+06
   1668      1     10    102       21.20          0.1815E+06
   1669      1     10    103       23.90          0.1815E+06
   1670      1     10    104       27.40          0.1815E+06
   1671      1     10    105       30.70          0.1815E+06
   1672      1     10    106       32.40          0.1815E+06
   1673      1     10    107       31.80          0.1815E+06
   1674      1     10    108       29.50          0.1815E+06
   1675      1     10    109       26.00          0.1815E+06
   1676      1     10    110       21.00          0.1815E+06
   1677      1     10    111       18.00          0.1815E+06
   1678      1     10    112       17.10          0.1815E+06
   1679      1     10    113       12.30          0.1815E+06
   1680      1     10    114       11.57          0.1815E+06
   1681      1     10    115       9.380          0.1815E+06
   1682      1     10    116       8.230          0.1815E+06
   1683      1     10    117       7.590          0.1815E+06
   1684      1     10    118       8.980          0.1815E+06
   1685      1     10    119       8.430          0.1815E+06
   1686      1     10    120       7.300          0.1815E+06
   1687      1     10    121       6.730          0.1815E+06
   1688      1     10    122       7.360          0.1815E+06
   1689      1     10    123       7.710          0.1815E+06
   1690      1     10    124       7.780          0.1815E+06
   1691      1     10    125       7.380          0.1815E+06
   1692      1     10    126       6.710          0.1815E+06
   1693      1     10    127       6.150          0.1815E+06
   1694      1     10    128       6.010          0.1815E+06
   1695      1     10    129       5.800          0.1815E+06
   1696      1     10    130       5.800          0.1815E+06
   1697      1     10    131       5.760          0.1815E+06
   1698      1     10    132       5.820          0.1815E+06
   1699      1     10    133       5.940          0.1815E+06
   1700      1     10    134       6.190          0.1815E+06
   1701      1     10    135       6.190          0.1815E+06
   1702      1     10    136       7.530          0.1815E+06
   1703      1     10    137       12.39          0.1815E+06
   1704      1     10    138       20.10          0.1815E+06
   1705      1     10    139       28.50          0.1815E+06
   1706      1     10    140       33.10          0.1815E+06
   1707      1     10    141       34.40          0.1815E+06
   1708      1     10    142       34.90          0.1815E+06
   1709      1     10    143       33.40          0.1815E+06
   1710      1     10    144       29.10          0.1815E+06
   1711      1     10    145       24.10          0.1815E+06
   1712      1     10    146       25.20          0.1815E+06
   1713      1     10    147       27.40          0.1815E+06
   1714      1     10    148       27.70          0.1815E+06
   1715      1     10    149       30.90          0.1815E+06
   1716      1     10    150       33.60          0.1815E+06
   1717      1     10    151       36.00          0.1815E+06
   1718      1     10    152       38.00          0.1815E+06
   1719      1     10    153       39.30          0.1815E+06
   1720      1     10    154       40.70          0.1815E+06
   1721      1     10    155       39.40          0.1815E+06
   1722      1     10    156       37.40          0.1815E+06
   1723      1     10    157       34.10          0.1815E+06
   1724      1     10    158       29.00          0.1815E+06
   1725      1     10    159       20.60          0.1815E+06
   1726      1     10    160       16.20          0.1815E+06
   1727      1     10    161       15.00          0.1815E+06
   1728      1     10    162       16.70          0.1815E+06
   1729      1     10    163       17.60          0.1815E+06
   1730      1     10    164       18.90          0.1815E+06
   1731      1     10    165       19.00          0.1815E+06
   1732      1     10    166       17.60          0.1815E+06
   1733      1     10    167       16.10          0.1815E+06
   1734      1     10    168       14.60          0.1815E+06
   1735      1     10    169       13.30          0.1815E+06
   1736      1     10    170       9.840          0.1815E+06
   1737      1     10    171       10.69          0.1815E+06
   1738      1     10    172       15.30          0.1815E+06
   1739      1     10    173       16.60          0.1815E+06
   1740      1     10    174       19.30          0.1815E+06
   1741      1     11      1       6.550          0.1815E+06
   1742      1     11      2       7.170          0.1815E+06
   1743      1     11      3       6.320          0.1815E+06
   1744      1     11      4       6.710          0.1815E+06
   1745      1     11      5       8.110          0.1815E+06
   1746      1     11      6       6.650          0.1815E+06
   1747      1     11      7       6.250          0.1815E+06
   1748      1     11      8       6.630          0.1815E+06
   1749      1     11      9       9.770          0.1815E+06
   1750      1     11     10       7.730          0.1815E+06
   1751      1     11     11       5.210          0.1815E+06
   1752      1     11     12       5.410          0.1815E+06
   1753      1     11     13       4.420          0.1815E+06
   1754      1     11     14       3.410          0.1815E+06
   1755      1     11     15       3.410          0.1815E+06
   1756      1     11     16       1.410          0.1815E+06
   1757      1     11     17       3.440          0.1815E+06
   1758      1     11     18       2.410          0.1815E+06
   1759      1     11     19       2.420          0.1815E+06
   1760      1     11     20       2.410          0.1815E+06
   1761      1     11     21       2.410          0.1815E+06
   1762      1     11     22       3.410          0.1815E+06
   1763      1     11     23       3.410          0.1815E+06
   1764      1     11     24       4.410          0.1815E+06
   1765      1     11     25       7.130          0.1815E+06
   1766      1     11     26       8.180          0.1815E+06
   1767      1     11     27       9.350          0.1815E+06
   1768      1     11     28       9.440          0.1815E+06
   1769      1     11     29       9.680          0.1815E+06
   1770      1     11     30       10.94          0.1815E+06
   1771      1     11     31       10.78          0.1815E+06
   1772      1     11     32       10.02          0.1815E+06
   1773      1     11     33       9.850          0.1815E+06
   1774      1     11     34       10.64          0.1815E+06
   1775      1     11     35       11.51          0.1815E+06
   1776      1     11     36       10.10          0.1815E+06
   1777      1     11     37       6.650          0.1815E+06
   1778      1     11     38       10.02          0.1815E+06
   1779      1     11     39       11.92          0.1815E+06
   1780      1     11     40       4.910          0.1815E+06
   1781      1     11     41       12.21          0.1815E+06
   1782      1     11     42       4.410          0.1815E+06
   1783      1     11     43       4.400          0.1815E+06
   1784      1     11     44       4.400          0.1815E+06
   1785      1     11     45       4.400          0.1815E+06
   1786      1     11     46       5.410          0.1815E+06
   1787      1     11     47       5.150          0.1815E+06
   1788      1     11     48       5.590          0.1815E+06
   1789      1     11     49       5.730          0.1815E+06
   1790      1     11     50       5.530          0.1815E+06
   1791      1     11     51       4.780          0.1815E+06
   1792      1     11     52       5.320          0.1815E+06
   1793      1     11     53       5.550          0.1815E+06
   1794      1     11     54       5.530          0.1815E+06
   1795      1     11     55       5.550          0.1815E+06
   1796      1     11     56       5.190          0.1815E+06
   1797      1     11     57       7.300          0.1815E+06
   1798      1     11     58       9.970          0.1815E+06
   1799      1     11     59       12.06          0.1815E+06
   1800      1     11     60       13.89          0.1815E+06
   1801      1     11     61       11.17          0.1815E+06
   1802      1     11     62       11.52          0.1815E+06
   1803      1     11     63       8.270          0.1815E+06
   1804      1     11     64       7.900          0.1815E+06
   1805      1     11     65       11.92          0.1815E+06
   1806      1     11     66       14.81          0.1815E+06
   1807      1     11     67       14.85          0.1815E+06
   1808      1     11     68       14.64          0.1815E+06
   1809      1     11     69       16.13          0.1815E+06
   1810      1     11     70       17.27          0.1815E+06
   1811      1     11     71       18.95          0.1815E+06
   1812      1     11     72       22.95          0.1815E+06
   1813      1     11     73       26.65          0.1815E+06
   1814      1     11     74       27.80          0.1815E+06
   1815      1     11     75       25.70          0.1815E+06
   1816      1     11     76       22.70          0.1815E+06
   1817      1     11     77       20.20          0.1815E+06
   1818      1     11     78       18.30          0.1815E+06
   1819      1     11     79       17.70          0.1815E+06
   1820      1     11     80       19.60          0.1815E+06
   1821      1     11     81       20.40          0.1815E+06
   1822      1     11     82       22.00          0.1815E+06
   1823      1     11     83       23.20          0.1815E+06
   1824      1     11     84       22.90          0.1815E+06
   1825      1     11     85       22.00          0.1815E+06
   1826      1     11     86       20.40          0.1815E+06
   1827      1     11     87       19.40          0.1815E+06
   1828      1     11     88       17.90          0.1815E+06
   1829      1     11     89       17.40          0.1815E+06
   1830      1     11     90       20.60          0.1815E+06
   1831      1     11     91       21.90          0.1815E+06
   1832      1     11     92       23.30          0.1815E+06
   1833      1     11     93       24.70          0.1815E+06
   1834      1     11     94       27.10          0.1815E+06
   1835      1     11     95       27.20          0.1815E+06
   1836      1     11     96       26.30          0.1815E+06
   1837      1     11     97       24.00          0.1815E+06
   1838      1     11     98       20.80          0.1815E+06
   1839      1     11     99       20.10          0.1815E+06
   1840      1     11    100       19.70          0.1815E+06
   1841      1     11    101       21.00          0.1815E+06
   1842      1     11    102       23.40          0.1815E+06
   1843      1     11    103       26.60          0.1815E+06
   1844      1     11    104       29.90          0.1815E+06
   1845      1     11    105       32.00          0.1815E+06
   1846      1     11    106       32.60          0.1815E+06
   1847      1     11    107       31.10          0.1815E+06
   1848      1     11    108       27.00          0.1815E+06
   1849      1     11    109       23.30          0.1815E+06
   1850      1     11    110       21.80          0.1815E+06
   1851      1     11    111       22.50          0.1815E+06
   1852      1     11    112       20.50          0.1815E+06
   1853      1     11    113       17.80          0.1815E+06
   1854      1     11    114       16.40          0.1815E+06
   1855      1     11    115       13.41          0.1815E+06
   1856      1     11    116       9.470          0.1815E+06
   1857      1     11    117       7.360          0.1815E+06
   1858      1     11    118       7.400          0.1815E+06
   1859      1     11    119       7.150          0.1815E+06
   1860      1     11    120       7.150          0.1815E+06
   1861      1     11    121       6.710          0.1815E+06
   1862      1     11    122       6.820          0.1815E+06
   1863      1     11    123       7.400          0.1815E+06
   1864      1     11    124       9.400          0.1815E+06
   1865      1     11    125       10.77          0.1815E+06
   1866      1     11    126       9.800          0.1815E+06
   1867      1     11    127       6.980          0.1815E+06
   1868      1     11    128       5.960          0.1815E+06
   1869      1     11    129       5.840          0.1815E+06
   1870      1     11    130       5.820          0.1815E+06
   1871      1     11    131       5.860          0.1815E+06
   1872      1     11    132       5.900          0.1815E+06
   1873      1     11    133       6.460          0.1815E+06
   1874      1     11    134       6.480          0.1815E+06
   1875      1     11    135       8.920          0.1815E+06
   1876      1     11    136       16.15          0.1815E+06
   1877      1     11    137       25.20          0.1815E+06
   1878      1     11    138       30.80          0.1815E+06
   1879      1     11    139       30.00          0.1815E+06
   1880      1     11    140       34.00          0.1815E+06
   1881      1     11    141       35.20          0.1815E+06
   1882      1     11    142       35.20          0.1815E+06
   1883      1     11    143       32.30          0.1815E+06
   1884      1     11    144       27.90          0.1815E+06
   1885      1     11    145       30.50          0.1815E+06
   1886      1     11    146       31.70          0.1815E+06
   1887      1     11    147       32.40          0.1815E+06
   1888      1     11    148       35.20          0.1815E+06
   1889      1     11    149       37.80          0.1815E+06
   1890      1     11    150       40.60          0.1815E+06
   1891      1     11    151       42.10          0.1815E+06
   1892      1     11    152       42.90          0.1815E+06
   1893      1     11    153       44.10          0.1815E+06
   1894      1     11    154       44.20          0.1815E+06
   1895      1     11    155       42.70          0.1815E+06
   1896      1     11    156       40.90          0.1815E+06
   1897      1     11    157       37.80          0.1815E+06
   1898      1     11    158       32.70          0.1815E+06
   1899      1     11    159       26.30          0.1815E+06
   1900      1     11    160       20.10          0.1815E+06
   1901      1     11    161       18.80          0.1815E+06
   1902      1     11    162       19.60          0.1815E+06
   1903      1     11    163       20.40          0.1815E+06
   1904      1     11    164       21.60          0.1815E+06
   1905      1     11    165       22.30          0.1815E+06
   1906      1     11    166       21.70          0.1815E+06
   1907      1     11    167       20.40          0.1815E+06
   1908      1     11    168       18.10          0.1815E+06
   1909      1     11    169       16.40          0.1815E+06
   1910      1     11    170       12.56          0.1815E+06
   1911      1     11    171       14.99          0.1815E+06
   1912      1     11    172       19.80          0.1815E+06
   1913      1     11    173       22.20          0.1815E+06
   1914      1     11    174       24.50          0.1815E+06
   1915      1     12      1       6.550          0.1815E+06
   1916      1     12      2       6.730          0.1815E+06
   1917      1     12      3       9.090          0.1815E+06
   1918      1     12      4       5.190          0.1815E+06
   1919      1     12      5       4.420          0.1815E+06
   1920      1     12      6       4.420          0.1815E+06
   1921      1     12      7       4.420          0.1815E+06
   1922      1     12      8       4.420          0.1815E+06
   1923      1     12      9       4.420          0.1815E+06
   1924      1     12     10       5.410          0.1815E+06
   1925      1     12     11       5.410          0.1815E+06
   1926      1     12     12       4.420          0.1815E+06
   1927      1     12     13       4.800          0.1815E+06
   1928      1     12     14       1.390          0.1815E+06
   1929      1     12     15       1.390          0.1815E+06
   1930      1     12     16      0.4100          0.1815E+06
   1931      1     12     17       2.870          0.1815E+06
   1932      1     12     18       2.410          0.1815E+06
   1933      1     12     19       2.420          0.1815E+06
   1934      1     12     20       2.410          0.1815E+06
   1935      1     12     21       2.410          0.1815E+06
   1936      1     12     22       3.410          0.1815E+06
   1937      1     12     23       3.410          0.1815E+06
   1938      1     12     24       3.410          0.1815E+06
   1939      1     12     25       2.980          0.1815E+06
   1940      1     12     26       2.980          0.1815E+06
   1941      1     12     27       3.410          0.1815E+06
   1942      1     12     28       3.910          0.1815E+06
   1943      1     12     29       8.380          0.1815E+06
   1944      1     12     30       9.320          0.1815E+06
   1945      1     12     31       4.910          0.1815E+06
   1946      1     12     32       4.910          0.1815E+06
   1947      1     12     33       4.410          0.1815E+06
   1948      1     12     34       4.410          0.1815E+06
   1949      1     12     35       4.410          0.1815E+06
   1950      1     12     36       4.410          0.1815E+06
   1951      1     12     37       4.410          0.1815E+06
   1952      1     12     38       4.410          0.1815E+06
   1953      1     12     39       4.410          0.1815E+06
   1954      1     12     40       4.410          0.1815E+06
   1955      1     12     41       10.43          0.1815E+06
   1956      1     12     42       4.410          0.1815E+06
   1957      1     12     43       4.400          0.1815E+06
   1958      1     12     44       4.400          0.1815E+06
   1959      1     12     45       4.400          0.1815E+06
   1960      1     12     46       5.410          0.1815E+06
   1961      1     12     47       4.820          0.1815E+06
   1962      1     12     48       5.110          0.1815E+06
   1963      1     12     49       5.570          0.1815E+06
   1964      1     12     50       5.210          0.1815E+06
   1965      1     12     51       5.690          0.1815E+06
   1966      1     12     52       5.500          0.1815E+06
   1967      1     12     53       5.650          0.1815E+06
   1968      1     12     54       5.760          0.1815E+06
   1969      1     12     55       5.800          0.1815E+06
   1970      1     12     56       5.900          0.1815E+06
   1971      1     12     57       6.880          0.1815E+06
   1972      1     12     58       8.340          0.1815E+06
   1973      1     12     59       10.14          0.1815E+06
   1974      1     12     60       12.85          0.1815E+06
   1975      1     12     61       13.60          0.1815E+06
   1976      1     12     62       12.06          0.1815E+06
   1977      1     12     63       11.03          0.1815E+06
   1978      1     12     64       8.510          0.1815E+06
   1979      1     12     65       8.360          0.1815E+06
   1980      1     12     66       9.770          0.1815E+06
   1981      1     12     67       10.60          0.1815E+06
   1982      1     12     68       10.85          0.1815E+06
   1983      1     12     69       11.67          0.1815E+06
   1984      1     12     70       14.23          0.1815E+06
   1985      1     12     71       19.05          0.1815E+06
   1986      1     12     72       22.36          0.1815E+06
   1987      1     12     73       25.15          0.1815E+06
   1988      1     12     74       26.30          0.1815E+06
   1989      1     12     75       26.40          0.1815E+06
   1990      1     12     76       23.10          0.1815E+06
   1991      1     12     77       19.60          0.1815E+06
   1992      1     12     78       18.50          0.1815E+06
   1993      1     12     79       17.70          0.1815E+06
   1994      1     12     80       18.20          0.1815E+06
   1995      1     12     81       20.20          0.1815E+06
   1996      1     12     82       21.10          0.1815E+06
   1997      1     12     83       21.70          0.1815E+06
   1998      1     12     84       20.70          0.1815E+06
   1999      1     12     85       20.00          0.1815E+06
   2000      1     12     86       20.20          0.1815E+06
   2001      1     12     87       20.20          0.1815E+06
   2002      1     12     88       17.00          0.1815E+06
   2003      1     12     89       18.90          0.1815E+06
   2004      1     12     90       21.20          0.1815E+06
   2005      1     12     91       23.90          0.1815E+06
   2006      1     12     92       26.10          0.1815E+06
   2007      1     12     93       27.40          0.1815E+06
   2008      1     12     94       29.90          0.1815E+06
   2009      1     12     95       29.30          0.1815E+06
   2010      1     12     96       27.50          0.1815E+06
   2011      1     12     97       25.80          0.1815E+06
   2012      1     12     98       22.50          0.1815E+06
   2013      1     12     99       19.40          0.1815E+06
   2014      1     12    100       18.20          0.1815E+06
   2015      1     12    101       20.80          0.1815E+06
   2016      1     12    102       24.00          0.1815E+06
   2017      1     12    103       27.80          0.1815E+06
   2018      1     12    104       32.00          0.1815E+06
   2019      1     12    105       33.00          0.1815E+06
   2020      1     12    106       32.00          0.1815E+06
   2021      1     12    107       30.40          0.1815E+06
   2022      1     12    108       28.00          0.1815E+06
   2023      1     12    109       26.10          0.1815E+06
   2024      1     12    110       25.00          0.1815E+06
   2025      1     12    111       23.90          0.1815E+06
   2026      1     12    112       21.70          0.1815E+06
   2027      1     12    113       20.40          0.1815E+06
   2028      1     12    114       17.80          0.1815E+06
   2029      1     12    115       14.20          0.1815E+06
   2030      1     12    116       9.020          0.1815E+06
   2031      1     12    117       6.730          0.1815E+06
   2032      1     12    118       6.980          0.1815E+06
   2033      1     12    119       7.150          0.1815E+06
   2034      1     12    120       7.190          0.1815E+06
   2035      1     12    121       7.230          0.1815E+06
   2036      1     12    122       6.690          0.1815E+06
   2037      1     12    123       7.190          0.1815E+06
   2038      1     12    124       11.72          0.1815E+06
   2039      1     12    125       15.27          0.1815E+06
   2040      1     12    126       11.30          0.1815E+06
   2041      1     12    127       7.380          0.1815E+06
   2042      1     12    128       5.880          0.1815E+06
   2043      1     12    129       5.900          0.1815E+06
   2044      1     12    130       5.800          0.1815E+06
   2045      1     12    131       5.920          0.1815E+06
   2046      1     12    132       6.230          0.1815E+06
   2047      1     12    133       6.510          0.1815E+06
   2048      1     12    134       9.500          0.1815E+06
   2049      1     12    135       19.30          0.1815E+06
   2050      1     12    136       26.00          0.1815E+06
   2051      1     12    137       31.20          0.1815E+06
   2052      1     12    138       33.30          0.1815E+06
   2053      1     12    139       34.00          0.1815E+06
   2054      1     12    140       35.90          0.1815E+06
   2055      1     12    141       36.20          0.1815E+06
   2056      1     12    142       35.40          0.1815E+06
   2057      1     12    143       35.30          0.1815E+06
   2058      1     12    144       31.90          0.1815E+06
   2059      1     12    145       35.00          0.1815E+06
   2060      1     12    146       36.70          0.1815E+06
   2061      1     12    147       38.00          0.1815E+06
   2062      1     12    148       39.90          0.1815E+06
   2063      1     12    149       43.50          0.1815E+06
   2064      1     12    150       46.40          0.1815E+06
   2065      1     12    151       48.00          0.1815E+06
   2066      1     12    152       48.70          0.1815E+06
   2067      1     12    153       49.40          0.1815E+06
   2068      1     12    154       49.00          0.1815E+06
   2069      1     12    155       46.40          0.1815E+06
   2070      1     12    156       43.90          0.1815E+06
   2071      1     12    157       40.80          0.1815E+06
   2072      1     12    158       37.30          0.1815E+06
   2073      1     12    159       33.00          0.1815E+06
   2074      1     12    160       25.40          0.1815E+06
   2075      1     12    161       23.10          0.1815E+06
   2076      1     12    162       23.30          0.1815E+06
   2077      1     12    163       23.30          0.1815E+06
   2078      1     12    164       25.00          0.1815E+06
   2079      1     12    165       25.80          0.1815E+06
   2080      1     12    166       25.40          0.1815E+06
   2081      1     12    167       23.90          0.1815E+06
   2082      1     12    168       22.80          0.1815E+06
   2083      1     12    169       20.70          0.1815E+06
   2084      1     12    170       18.10          0.1815E+06
   2085      1     12    171       19.90          0.1815E+06
   2086      1     12    172       24.00          0.1815E+06
   2087      1     12    173       26.50          0.1815E+06
   2088      1     12    174       28.90          0.1815E+06
   2089      1     13      1       8.180          0.1815E+06
   2090      1     13      2       7.860          0.1815E+06
   2091      1     13      3       7.880          0.1815E+06
   2092      1     13      4       7.410          0.1815E+06
   2093      1     13      5       4.690          0.1815E+06
   2094      1     13      6       4.980          0.1815E+06
   2095      1     13      7       5.320          0.1815E+06
   2096      1     13      8       4.820          0.1815E+06
   2097      1     13      9       5.130          0.1815E+06
   2098      1     13     10       2.910          0.1815E+06
   2099      1     13     11      0.4100          0.1815E+06
   2100      1     13     12      0.4100          0.1815E+06
   2101      1     13     13       8.020          0.1815E+06
   2102      1     13     14       1.390          0.1815E+06
   2103      1     13     15       1.390          0.1815E+06
   2104      1     13     16      0.4100          0.1815E+06
   2105      1     13     17       2.870          0.1815E+06
   2106      1     13     18       2.410          0.1815E+06
   2107      1     13     19       2.410          0.1815E+06
   2108      1     13     20       2.410          0.1815E+06
   2109      1     13     21       2.410          0.1815E+06
   2110      1     13     22       3.410          0.1815E+06
   2111      1     13     23       3.420          0.1815E+06
   2112      1     13     24       3.410          0.1815E+06
   2113      1     13     25       2.450          0.1815E+06
   2114      1     13     26       2.450          0.1815E+06
   2115      1     13     27       2.410          0.1815E+06
   2116      1     13     28       2.410          0.1815E+06
   2117      1     13     29       2.410          0.1815E+06
   2118      1     13     30       3.410          0.1815E+06
   2119      1     13     31       3.420          0.1815E+06
   2120      1     13     32       3.420          0.1815E+06
   2121      1     13     33       3.410          0.1815E+06
   2122      1     13     34       4.090          0.1815E+06
   2123      1     13     35       4.570          0.1815E+06
   2124      1     13     36       4.360          0.1815E+06
   2125      1     13     37       4.410          0.1815E+06
   2126      1     13     38       4.410          0.1815E+06
   2127      1     13     39       4.410          0.1815E+06
   2128      1     13     40       4.410          0.1815E+06
   2129      1     13     41       3.500          0.1815E+06
   2130      1     13     42       5.410          0.1815E+06
   2131      1     13     43       4.420          0.1815E+06
   2132      1     13     44       4.420          0.1815E+06
   2133      1     13     45       4.430          0.1815E+06
   2134      1     13     46       5.530          0.1815E+06
   2135      1     13     47       4.780          0.1815E+06
   2136      1     13     48       5.360          0.1815E+06
   2137      1     13     49       5.480          0.1815E+06
   2138      1     13     50       5.670          0.1815E+06
   2139      1     13     51       5.800          0.1815E+06
   2140      1     13     52       6.130          0.1815E+06
   2141      1     13     53       5.690          0.1815E+06
   2142      1     13     54       5.760          0.1815E+06
   2143      1     13     55       5.750          0.1815E+06
   2144      1     13     56       5.800          0.1815E+06
   2145      1     13     57       5.940          0.1815E+06
   2146      1     13     58       8.610          0.1815E+06
   2147      1     13     59       11.77          0.1815E+06
   2148      1     13     60       13.89          0.1815E+06
   2149      1     13     61       14.76          0.1815E+06
   2150      1     13     62       13.78          0.1815E+06
   2151      1     13     63       13.64          0.1815E+06
   2152      1     13     64       16.26          0.1815E+06
   2153      1     13     65       13.71          0.1815E+06
   2154      1     13     66       10.36          0.1815E+06
   2155      1     13     67       10.17          0.1815E+06
   2156      1     13     68       10.71          0.1815E+06
   2157      1     13     69       13.48          0.1815E+06
   2158      1     13     70       14.72          0.1815E+06
   2159      1     13     71       16.79          0.1815E+06
   2160      1     13     72       19.54          0.1815E+06
   2161      1     13     73       24.12          0.1815E+06
   2162      1     13     74       25.60          0.1815E+06
   2163      1     13     75       24.00          0.1815E+06
   2164      1     13     76       23.00          0.1815E+06
   2165      1     13     77       20.00          0.1815E+06
   2166      1     13     78       17.90          0.1815E+06
   2167      1     13     79       17.50          0.1815E+06
   2168      1     13     80       17.00          0.1815E+06
   2169      1     13     81       17.60          0.1815E+06
   2170      1     13     82       20.00          0.1815E+06
   2171      1     13     83       19.80          0.1815E+06
   2172      1     13     84       19.40          0.1815E+06
   2173      1     13     85       19.90          0.1815E+06
   2174      1     13     86       20.30          0.1815E+06
   2175      1     13     87       19.30          0.1815E+06
   2176      1     13     88       15.30          0.1815E+06
   2177      1     13     89       19.80          0.1815E+06
   2178      1     13     90       22.00          0.1815E+06
   2179      1     13     91       23.50          0.1815E+06
   2180      1     13     92       25.00          0.1815E+06
   2181      1     13     93       27.40          0.1815E+06
   2182      1     13     94       28.40          0.1815E+06
   2183      1     13     95       27.50          0.1815E+06
   2184      1     13     96       26.30          0.1815E+06
   2185      1     13     97       24.00          0.1815E+06
   2186      1     13     98       20.00          0.1815E+06
   2187      1     13     99       18.30          0.1815E+06
   2188      1     13    100       17.60          0.1815E+06
   2189      1     13    101       20.00          0.1815E+06
   2190      1     13    102       25.70          0.1815E+06
   2191      1     13    103       30.20          0.1815E+06
   2192      1     13    104       33.10          0.1815E+06
   2193      1     13    105       32.80          0.1815E+06
   2194      1     13    106       31.50          0.1815E+06
   2195      1     13    107       30.30          0.1815E+06
   2196      1     13    108       28.40          0.1815E+06
   2197      1     13    109       27.30          0.1815E+06
   2198      1     13    110       26.20          0.1815E+06
   2199      1     13    111       24.30          0.1815E+06
   2200      1     13    112       22.70          0.1815E+06
   2201      1     13    113       20.10          0.1815E+06
   2202      1     13    114       16.60          0.1815E+06
   2203      1     13    115       12.71          0.1815E+06
   2204      1     13    116       7.510          0.1815E+06
   2205      1     13    117       6.800          0.1815E+06
   2206      1     13    118       6.760          0.1815E+06
   2207      1     13    119       6.980          0.1815E+06
   2208      1     13    120       7.070          0.1815E+06
   2209      1     13    121       7.070          0.1815E+06
   2210      1     13    122       6.900          0.1815E+06
   2211      1     13    123       6.480          0.1815E+06
   2212      1     13    124       8.960          0.1815E+06
   2213      1     13    125       12.35          0.1815E+06
   2214      1     13    126       7.610          0.1815E+06
   2215      1     13    127       5.960          0.1815E+06
   2216      1     13    128       5.860          0.1815E+06
   2217      1     13    129       5.880          0.1815E+06
   2218      1     13    130       5.980          0.1815E+06
   2219      1     13    131       6.190          0.1815E+06
   2220      1     13    132       6.340          0.1815E+06
   2221      1     13    133       8.560          0.1815E+06
   2222      1     13    134       16.00          0.1815E+06
   2223      1     13    135       26.00          0.1815E+06
   2224      1     13    136       31.80          0.1815E+06
   2225      1     13    137       34.90          0.1815E+06
   2226      1     13    138       35.40          0.1815E+06
   2227      1     13    139       35.90          0.1815E+06
   2228      1     13    140       36.60          0.1815E+06
   2229      1     13    141       37.30          0.1815E+06
   2230      1     13    142       37.40          0.1815E+06
   2231      1     13    143       37.40          0.1815E+06
   2232      1     13    144       35.80          0.1815E+06
   2233      1     13    145       39.10          0.1815E+06
   2234      1     13    146       40.90          0.1815E+06
   2235      1     13    147       42.20          0.1815E+06
   2236      1     13    148       44.80          0.1815E+06
   2237      1     13    149       48.10          0.1815E+06
   2238      1     13    150       51.70          0.1815E+06
   2239      1     13    151       54.40          0.1815E+06
   2240      1     13    152       56.10          0.1815E+06
   2241      1     13    153       56.00          0.1815E+06
   2242      1     13    154       54.80          0.1815E+06
   2243      1     13    155       52.00          0.1815E+06
   2244      1     13    156       48.40          0.1815E+06
   2245      1     13    157       44.70          0.1815E+06
   2246      1     13    158       42.40          0.1815E+06
   2247      1     13    159       38.90          0.1815E+06
   2248      1     13    160       32.30          0.1815E+06
   2249      1     13    161       26.80          0.1815E+06
   2250      1     13    162       27.10          0.1815E+06
   2251      1     13    163       27.10          0.1815E+06
   2252      1     13    164       28.60          0.1815E+06
   2253      1     13    165       28.80          0.1815E+06
   2254      1     13    166       29.10          0.1815E+06
   2255      1     13    167       29.40          0.1815E+06
   2256      1     13    168       28.80          0.1815E+06
   2257      1     13    169       24.90          0.1815E+06
   2258      1     13    170       24.20          0.1815E+06
   2259      1     13    171       24.60          0.1815E+06
   2260      1     13    172       29.00          0.1815E+06
   2261      1     13    173       31.20          0.1815E+06
   2262      1     13    174       32.70          0.1815E+06
   2263      1     14      1       7.550          0.1815E+06
   2264      1     14      2       7.610          0.1815E+06
   2265      1     14      3       5.340          0.1815E+06
   2266      1     14      4       7.410          0.1815E+06
   2267      1     14      5       5.280          0.1815E+06
   2268      1     14      6       5.400          0.1815E+06
   2269      1     14      7       6.750          0.1815E+06
   2270      1     14      8       7.590          0.1815E+06
   2271      1     14      9       8.570          0.1815E+06
   2272      1     14     10       2.910          0.1815E+06
   2273      1     14     11      0.4100          0.1815E+06
   2274      1     14     12      0.4100          0.1815E+06
   2275      1     14     13     -0.3000          0.1815E+06
   2276      1     14     14       1.390          0.1815E+06
   2277      1     14     15       1.390          0.1815E+06
   2278      1     14     16      0.4100          0.1815E+06
   2279      1     14     17       2.870          0.1815E+06
   2280      1     14     18       2.410          0.1815E+06
   2281      1     14     19       2.410          0.1815E+06
   2282      1     14     20       2.410          0.1815E+06
   2283      1     14     21       2.410          0.1815E+06
   2284      1     14     22       3.410          0.1815E+06
   2285      1     14     23       3.420          0.1815E+06
   2286      1     14     24       3.410          0.1815E+06
   2287      1     14     25       2.450          0.1815E+06
   2288      1     14     26       2.450          0.1815E+06
   2289      1     14     27       2.410          0.1815E+06
   2290      1     14     28       2.410          0.1815E+06
   2291      1     14     29       2.410          0.1815E+06
   2292      1     14     30       3.410          0.1815E+06
   2293      1     14     31       3.420          0.1815E+06
   2294      1     14     32       3.420          0.1815E+06
   2295      1     14     33       3.410          0.1815E+06
   2296      1     14     34       4.610          0.1815E+06
   2297      1     14     35       5.900          0.1815E+06
   2298      1     14     36       7.360          0.1815E+06
   2299      1     14     37       4.410          0.1815E+06
   2300      1     14     38       4.410          0.1815E+06
   2301      1     14     39       4.410          0.1815E+06
   2302      1     14     40       4.410          0.1815E+06
   2303      1     14     41       8.680          0.1815E+06
   2304      1     14     42       5.410          0.1815E+06
   2305      1     14     43       4.420          0.1815E+06
   2306      1     14     44       4.420          0.1815E+06
   2307      1     14     45       4.430          0.1815E+06
   2308      1     14     46       11.72          0.1815E+06
   2309      1     14     47       19.14          0.1815E+06
   2310      1     14     48       9.060          0.1815E+06
   2311      1     14     49       7.320          0.1815E+06
   2312      1     14     50       7.550          0.1815E+06
   2313      1     14     51       7.780          0.1815E+06
   2314      1     14     52       8.350          0.1815E+06
   2315      1     14     53       8.360          0.1815E+06
   2316      1     14     54       7.150          0.1815E+06
   2317      1     14     55       8.010          0.1815E+06
   2318      1     14     56       7.920          0.1815E+06
   2319      1     14     57       6.190          0.1815E+06
   2320      1     14     58       8.750          0.1815E+06
   2321      1     14     59       11.85          0.1815E+06
   2322      1     14     60       12.31          0.1815E+06
   2323      1     14     61       14.50          0.1815E+06
   2324      1     14     62       15.15          0.1815E+06
   2325      1     14     63       17.81          0.1815E+06
   2326      1     14     64       25.26          0.1815E+06
   2327      1     14     65       26.32          0.1815E+06
   2328      1     14     66       22.27          0.1815E+06
   2329      1     14     67       17.55          0.1815E+06
   2330      1     14     68       14.21          0.1815E+06
   2331      1     14     69       15.34          0.1815E+06
   2332      1     14     70       18.76          0.1815E+06
   2333      1     14     71       24.44          0.1815E+06
   2334      1     14     72       24.72          0.1815E+06
   2335      1     14     73       28.11          0.1815E+06
   2336      1     14     74       29.80          0.1815E+06
   2337      1     14     75       27.40          0.1815E+06
   2338      1     14     76       22.60          0.1815E+06
   2339      1     14     77       19.50          0.1815E+06
   2340      1     14     78       18.80          0.1815E+06
   2341      1     14     79       17.90          0.1815E+06
   2342      1     14     80       15.40          0.1815E+06
   2343      1     14     81       14.90          0.1815E+06
   2344      1     14     82       16.20          0.1815E+06
   2345      1     14     83       16.90          0.1815E+06
   2346      1     14     84       18.60          0.1815E+06
   2347      1     14     85       20.00          0.1815E+06
   2348      1     14     86       18.80          0.1815E+06
   2349      1     14     87       15.70          0.1815E+06
   2350      1     14     88       16.90          0.1815E+06
   2351      1     14     89       21.00          0.1815E+06
   2352      1     14     90       22.60          0.1815E+06
   2353      1     14     91       23.70          0.1815E+06
   2354      1     14     92       25.70          0.1815E+06
   2355      1     14     93       26.40          0.1815E+06
   2356      1     14     94       26.20          0.1815E+06
   2357      1     14     95       24.50          0.1815E+06
   2358      1     14     96       22.20          0.1815E+06
   2359      1     14     97       19.30          0.1815E+06
   2360      1     14     98       18.20          0.1815E+06
   2361      1     14     99       15.60          0.1815E+06
   2362      1     14    100       18.70          0.1815E+06
   2363      1     14    101       23.70          0.1815E+06
   2364      1     14    102       27.90          0.1815E+06
   2365      1     14    103       31.50          0.1815E+06
   2366      1     14    104       32.20          0.1815E+06
   2367      1     14    105       31.30          0.1815E+06
   2368      1     14    106       30.10          0.1815E+06
   2369      1     14    107       29.00          0.1815E+06
   2370      1     14    108       28.10          0.1815E+06
   2371      1     14    109       28.20          0.1815E+06
   2372      1     14    110       26.70          0.1815E+06
   2373      1     14    111       24.10          0.1815E+06
   2374      1     14    112       22.00          0.1815E+06
   2375      1     14    113       19.80          0.1815E+06
   2376      1     14    114       18.40          0.1815E+06
   2377      1     14    115       14.96          0.1815E+06
   2378      1     14    116       7.630          0.1815E+06
   2379      1     14    117       6.760          0.1815E+06
   2380      1     14    118       6.730          0.1815E+06
   2381      1     14    119       6.800          0.1815E+06
   2382      1     14    120       6.820          0.1815E+06
   2383      1     14    121       6.800          0.1815E+06
   2384      1     14    122       6.530          0.1815E+06
   2385      1     14    123       6.320          0.1815E+06
   2386      1     14    124       6.280          0.1815E+06
   2387      1     14    125       6.260          0.1815E+06
   2388      1     14    126       6.980          0.1815E+06
   2389      1     14    127       5.920          0.1815E+06
   2390      1     14    128       5.920          0.1815E+06
   2391      1     14    129       5.960          0.1815E+06
   2392      1     14    130       6.190          0.1815E+06
   2393      1     14    131       6.360          0.1815E+06
   2394      1     14    132       9.430          0.1815E+06
   2395      1     14    133       14.92          0.1815E+06
   2396      1     14    134       24.10          0.1815E+06
   2397      1     14    135       32.10          0.1815E+06
   2398      1     14    136       35.10          0.1815E+06
   2399      1     14    137       36.40          0.1815E+06
   2400      1     14    138       37.00          0.1815E+06
   2401      1     14    139       37.10          0.1815E+06
   2402      1     14    140       37.50          0.1815E+06
   2403      1     14    141       38.00          0.1815E+06
   2404      1     14    142       39.40          0.1815E+06
   2405      1     14    143       39.20          0.1815E+06
   2406      1     14    144       39.90          0.1815E+06
   2407      1     14    145       42.70          0.1815E+06
   2408      1     14    146       45.40          0.1815E+06
   2409      1     14    147       47.70          0.1815E+06
   2410      1     14    148       50.30          0.1815E+06
   2411      1     14    149       56.80          0.1815E+06
   2412      1     14    150       57.10          0.1815E+06
   2413      1     14    151       62.50          0.1815E+06
   2414      1     14    152       67.60          0.1815E+06
   2415      1     14    153       64.20          0.1815E+06
   2416      1     14    154       60.20          0.1815E+06
   2417      1     14    155       56.50          0.1815E+06
   2418      1     14    156       53.50          0.1815E+06
   2419      1     14    157       50.20          0.1815E+06
   2420      1     14    158       47.40          0.1815E+06
   2421      1     14    159       44.10          0.1815E+06
   2422      1     14    160       39.50          0.1815E+06
   2423      1     14    161       33.70          0.1815E+06
   2424      1     14    162       31.90          0.1815E+06
   2425      1     14    163       31.60          0.1815E+06
   2426      1     14    164       32.90          0.1815E+06
   2427      1     14    165       33.90          0.1815E+06
   2428      1     14    166       33.20          0.1815E+06
   2429      1     14    167       33.60          0.1815E+06
   2430      1     14    168       32.40          0.1815E+06
   2431      1     14    169       29.30          0.1815E+06
   2432      1     14    170       29.10          0.1815E+06
   2433      1     14    171       28.60          0.1815E+06
   2434      1     14    172       31.80          0.1815E+06
   2435      1     14    173       33.20          0.1815E+06
   2436      1     14    174       33.40          0.1815E+06
   2437      1     15      1       7.610          0.1815E+06
   2438      1     15      2       8.640          0.1815E+06
   2439      1     15      3       5.760          0.1815E+06
   2440      1     15      4       7.410          0.1815E+06
   2441      1     15      5       6.410          0.1815E+06
   2442      1     15      6       5.550          0.1815E+06
   2443      1     15      7       6.380          0.1815E+06
   2444      1     15      8       5.410          0.1815E+06
   2445      1     15      9       5.410          0.1815E+06
   2446      1     15     10       2.910          0.1815E+06
   2447      1     15     11      0.4100          0.1815E+06
   2448      1     15     12      0.4100          0.1815E+06
   2449      1     15     13      0.3700          0.1815E+06
   2450      1     15     14      0.4100          0.1815E+06
   2451      1     15     15      0.4100          0.1815E+06
   2452      1     15     16       1.440          0.1815E+06
   2453      1     15     17       2.420          0.1815E+06
   2454      1     15     18       2.420          0.1815E+06
   2455      1     15     19       2.420          0.1815E+06
   2456      1     15     20       3.420          0.1815E+06
   2457      1     15     21       3.420          0.1815E+06
   2458      1     15     22       3.410          0.1815E+06
   2459      1     15     23       3.410          0.1815E+06
   2460      1     15     24       2.920          0.1815E+06
   2461      1     15     25       2.410          0.1815E+06
   2462      1     15     26       2.410          0.1815E+06
   2463      1     15     27       1.410          0.1815E+06
   2464      1     15     28       3.410          0.1815E+06
   2465      1     15     29       7.410          0.1815E+06
   2466      1     15     30       6.420          0.1815E+06
   2467      1     15     31       5.410          0.1815E+06
   2468      1     15     32       5.410          0.1815E+06
   2469      1     15     33       5.410          0.1815E+06
   2470      1     15     34       5.920          0.1815E+06
   2471      1     15     35       7.030          0.1815E+06
   2472      1     15     36       7.260          0.1815E+06
   2473      1     15     37       7.280          0.1815E+06
   2474      1     15     38       7.250          0.1815E+06
   2475      1     15     39       7.210          0.1815E+06
   2476      1     15     40       7.360          0.1815E+06
   2477      1     15     41       7.780          0.1815E+06
   2478      1     15     42       6.030          0.1815E+06
   2479      1     15     43       7.900          0.1815E+06
   2480      1     15     44       10.97          0.1815E+06
   2481      1     15     45       17.07          0.1815E+06
   2482      1     15     46       20.79          0.1815E+06
   2483      1     15     47       22.20          0.1815E+06
   2484      1     15     48       21.82          0.1815E+06
   2485      1     15     49       21.76          0.1815E+06
   2486      1     15     50       21.19          0.1815E+06
   2487      1     15     51       20.55          0.1815E+06
   2488      1     15     52       18.93          0.1815E+06
   2489      1     15     53       14.11          0.1815E+06
   2490      1     15     54       12.09          0.1815E+06
   2491      1     15     55       11.09          0.1815E+06
   2492      1     15     56       9.780          0.1815E+06
   2493      1     15     57       7.010          0.1815E+06
   2494      1     15     58       9.380          0.1815E+06
   2495      1     15     59       11.14          0.1815E+06
   2496      1     15     60       11.76          0.1815E+06
   2497      1     15     61       13.34          0.1815E+06
   2498      1     15     62       16.22          0.1815E+06
   2499      1     15     63       22.23          0.1815E+06
   2500      1     15     64       26.62          0.1815E+06
   2501      1     15     65       29.26          0.1815E+06
   2502      1     15     66       29.01          0.1815E+06
   2503      1     15     67       28.60          0.1815E+06
   2504      1     15     68       25.37          0.1815E+06
   2505      1     15     69       26.87          0.1815E+06
   2506      1     15     70       30.65          0.1815E+06
   2507      1     15     71       31.57          0.1815E+06
   2508      1     15     72       30.85          0.1815E+06
   2509      1     15     73       32.06          0.1815E+06
   2510      1     15     74       33.00          0.1815E+06
   2511      1     15     75       29.70          0.1815E+06
   2512      1     15     76       23.40          0.1815E+06
   2513      1     15     77       21.90          0.1815E+06
   2514      1     15     78       21.20          0.1815E+06
   2515      1     15     79       19.80          0.1815E+06
   2516      1     15     80       17.70          0.1815E+06
   2517      1     15     81       14.70          0.1815E+06
   2518      1     15     82       13.00          0.1815E+06
   2519      1     15     83       13.50          0.1815E+06
   2520      1     15     84       16.20          0.1815E+06
   2521      1     15     85       16.90          0.1815E+06
   2522      1     15     86       15.90          0.1815E+06
   2523      1     15     87       13.20          0.1815E+06
   2524      1     15     88       18.50          0.1815E+06
   2525      1     15     89       21.20          0.1815E+06
   2526      1     15     90       22.30          0.1815E+06
   2527      1     15     91       20.80          0.1815E+06
   2528      1     15     92       23.30          0.1815E+06
   2529      1     15     93       24.10          0.1815E+06
   2530      1     15     94       23.20          0.1815E+06
   2531      1     15     95       19.80          0.1815E+06
   2532      1     15     96       17.40          0.1815E+06
   2533      1     15     97       16.50          0.1815E+06
   2534      1     15     98       16.10          0.1815E+06
   2535      1     15     99       15.00          0.1815E+06
   2536      1     15    100       20.50          0.1815E+06
   2537      1     15    101       26.30          0.1815E+06
   2538      1     15    102       29.70          0.1815E+06
   2539      1     15    103       31.00          0.1815E+06
   2540      1     15    104       31.00          0.1815E+06
   2541      1     15    105       30.50          0.1815E+06
   2542      1     15    106       28.50          0.1815E+06
   2543      1     15    107       25.80          0.1815E+06
   2544      1     15    108       29.10          0.1815E+06
   2545      1     15    109       28.90          0.1815E+06
   2546      1     15    110       27.10          0.1815E+06
   2547      1     15    111       24.40          0.1815E+06
   2548      1     15    112       22.50          0.1815E+06
   2549      1     15    113       21.10          0.1815E+06
   2550      1     15    114       19.90          0.1815E+06
   2551      1     15    115       16.18          0.1815E+06
   2552      1     15    116       7.570          0.1815E+06
   2553      1     15    117       6.630          0.1815E+06
   2554      1     15    118       6.610          0.1815E+06
   2555      1     15    119       6.730          0.1815E+06
   2556      1     15    120       6.750          0.1815E+06
   2557      1     15    121       6.480          0.1815E+06
   2558      1     15    122       6.400          0.1815E+06
   2559      1     15    123       6.230          0.1815E+06
   2560      1     15    124       6.150          0.1815E+06
   2561      1     15    125       6.130          0.1815E+06
   2562      1     15    126       7.860          0.1815E+06
   2563      1     15    127       6.070          0.1815E+06
   2564      1     15    128       6.050          0.1815E+06
   2565      1     15    129       6.050          0.1815E+06
   2566      1     15    130       6.090          0.1815E+06
   2567      1     15    131       7.920          0.1815E+06
   2568      1     15    132       13.60          0.1815E+06
   2569      1     15    133       21.70          0.1815E+06
   2570      1     15    134       31.30          0.1815E+06
   2571      1     15    135       35.00          0.1815E+06
   2572      1     15    136       36.30          0.1815E+06
   2573      1     15    137       36.70          0.1815E+06
   2574      1     15    138       37.20          0.1815E+06
   2575      1     15    139       37.90          0.1815E+06
   2576      1     15    140       38.60          0.1815E+06
   2577      1     15    141       40.10          0.1815E+06
   2578      1     15    142       41.20          0.1815E+06
   2579      1     15    143       42.00          0.1815E+06
   2580      1     15    144       43.60          0.1815E+06
   2581      1     15    145       47.00          0.1815E+06
   2582      1     15    146       50.70          0.1815E+06
   2583      1     15    147       54.10          0.1815E+06
   2584      1     15    148       57.60          0.1815E+06
   2585      1     15    149       67.10          0.1815E+06
   2586      1     15    150       66.20          0.1815E+06
   2587      1     15    151       69.00          0.1815E+06
   2588      1     15    152       71.40          0.1815E+06
   2589      1     15    153       72.70          0.1815E+06
   2590      1     15    154       68.60          0.1815E+06
   2591      1     15    155       61.40          0.1815E+06
   2592      1     15    156       59.40          0.1815E+06
   2593      1     15    157       55.60          0.1815E+06
   2594      1     15    158       51.20          0.1815E+06
   2595      1     15    159       47.10          0.1815E+06
   2596      1     15    160       43.10          0.1815E+06
   2597      1     15    161       39.10          0.1815E+06
   2598      1     15    162       36.70          0.1815E+06
   2599      1     15    163       36.00          0.1815E+06
   2600      1     15    164       35.40          0.1815E+06
   2601      1     15    165       35.70          0.1815E+06
   2602      1     15    166       35.60          0.1815E+06
   2603      1     15    167       35.50          0.1815E+06
   2604      1     15    168       33.80          0.1815E+06
   2605      1     15    169       32.30          0.1815E+06
   2606      1     15    170       32.00          0.1815E+06
   2607      1     15    171       32.20          0.1815E+06
   2608      1     15    172       33.20          0.1815E+06
   2609      1     15    173       33.40          0.1815E+06
   2610      1     15    174       33.10          0.1815E+06
   2611      1     16      1       7.940          0.1815E+06
   2612      1     16      2       7.900          0.1815E+06
   2613      1     16      3       7.050          0.1815E+06
   2614      1     16      4       4.410          0.1815E+06
   2615      1     16      5       6.410          0.1815E+06
   2616      1     16      6       9.630          0.1815E+06
   2617      1     16      7       6.960          0.1815E+06
   2618      1     16      8       2.410          0.1815E+06
   2619      1     16      9       2.410          0.1815E+06
   2620      1     16     10       1.420          0.1815E+06
   2621      1     16     11       1.420          0.1815E+06
   2622      1     16     12       2.460          0.1815E+06
   2623      1     16     13       4.420          0.1815E+06
   2624      1     16     14      0.5600          0.1815E+06
   2625      1     16     15      0.5600          0.1815E+06
   2626      1     16     16      0.4200          0.1815E+06
   2627      1     16     17      0.4200          0.1815E+06
   2628      1     16     18       2.410          0.1815E+06
   2629      1     16     19       3.410          0.1815E+06
   2630      1     16     20       3.410          0.1815E+06
   2631      1     16     21       3.410          0.1815E+06
   2632      1     16     22       3.410          0.1815E+06
   2633      1     16     23       2.420          0.1815E+06
   2634      1     16     24       1.420          0.1815E+06
   2635      1     16     25       1.420          0.1815E+06
   2636      1     16     26       1.420          0.1815E+06
   2637      1     16     27       1.420          0.1815E+06
   2638      1     16     28       5.510          0.1815E+06
   2639      1     16     29       7.410          0.1815E+06
   2640      1     16     30       6.420          0.1815E+06
   2641      1     16     31       5.410          0.1815E+06
   2642      1     16     32       5.410          0.1815E+06
   2643      1     16     33       6.230          0.1815E+06
   2644      1     16     34       9.100          0.1815E+06
   2645      1     16     35       7.730          0.1815E+06
   2646      1     16     36       7.800          0.1815E+06
   2647      1     16     37       8.590          0.1815E+06
   2648      1     16     38       8.140          0.1815E+06
   2649      1     16     39       8.430          0.1815E+06
   2650      1     16     40       8.460          0.1815E+06
   2651      1     16     41       9.110          0.1815E+06
   2652      1     16     42       7.340          0.1815E+06
   2653      1     16     43       12.05          0.1815E+06
   2654      1     16     44       16.73          0.1815E+06
   2655      1     16     45       20.73          0.1815E+06
   2656      1     16     46       22.47          0.1815E+06
   2657      1     16     47       23.05          0.1815E+06
   2658      1     16     48       22.79          0.1815E+06
   2659      1     16     49       23.12          0.1815E+06
   2660      1     16     50       23.30          0.1815E+06
   2661      1     16     51       22.67          0.1815E+06
   2662      1     16     52       23.34          0.1815E+06
   2663      1     16     53       24.05          0.1815E+06
   2664      1     16     54       23.89          0.1815E+06
   2665      1     16     55       16.70          0.1815E+06
   2666      1     16     56       11.39          0.1815E+06
   2667      1     16     57       8.220          0.1815E+06
   2668      1     16     58       8.720          0.1815E+06
   2669      1     16     59       9.520          0.1815E+06
   2670      1     16     60       10.10          0.1815E+06
   2671      1     16     61       14.15          0.1815E+06
   2672      1     16     62       18.95          0.1815E+06
   2673      1     16     63       25.42          0.1815E+06
   2674      1     16     64       28.37          0.1815E+06
   2675      1     16     65       28.80          0.1815E+06
   2676      1     16     66       30.88          0.1815E+06
   2677      1     16     67       30.98          0.1815E+06
   2678      1     16     68       31.26          0.1815E+06
   2679      1     16     69       32.88          0.1815E+06
   2680      1     16     70       34.81          0.1815E+06
   2681      1     16     71       34.58          0.1815E+06
   2682      1     16     72       33.49          0.1815E+06
   2683      1     16     73       35.36          0.1815E+06
   2684      1     16     74       35.30          0.1815E+06
   2685      1     16     75       32.10          0.1815E+06
   2686      1     16     76       26.50          0.1815E+06
   2687      1     16     77       28.30          0.1815E+06
   2688      1     16     78       29.70          0.1815E+06
   2689      1     16     79       23.30          0.1815E+06
   2690      1     16     80       17.20          0.1815E+06
   2691      1     16     81       15.50          0.1815E+06
   2692      1     16     82       13.70          0.1815E+06
   2693      1     16     83       12.20          0.1815E+06
   2694      1     16     84       12.80          0.1815E+06
   2695      1     16     85       12.20          0.1815E+06
   2696      1     16     86       12.40          0.1815E+06
   2697      1     16     87       15.60          0.1815E+06
   2698      1     16     88       18.00          0.1815E+06
   2699      1     16     89       19.30          0.1815E+06
   2700      1     16     90       21.00          0.1815E+06
   2701      1     16     91       19.00          0.1815E+06
   2702      1     16     92       20.90          0.1815E+06
   2703      1     16     93       21.30          0.1815E+06
   2704      1     16     94       19.40          0.1815E+06
   2705      1     16     95       15.60          0.1815E+06
   2706      1     16     96       14.60          0.1815E+06
   2707      1     16     97       15.90          0.1815E+06
   2708      1     16     98       15.10          0.1815E+06
   2709      1     16     99       14.80          0.1815E+06
   2710      1     16    100       21.90          0.1815E+06
   2711      1     16    101       27.30          0.1815E+06
   2712      1     16    102       29.90          0.1815E+06
   2713      1     16    103       30.10          0.1815E+06
   2714      1     16    104       29.40          0.1815E+06
   2715      1     16    105       27.60          0.1815E+06
   2716      1     16    106       23.10          0.1815E+06
   2717      1     16    107       25.80          0.1815E+06
   2718      1     16    108       29.10          0.1815E+06
   2719      1     16    109       28.70          0.1815E+06
   2720      1     16    110       26.80          0.1815E+06
   2721      1     16    111       23.00          0.1815E+06
   2722      1     16    112       19.70          0.1815E+06
   2723      1     16    113       20.20          0.1815E+06
   2724      1     16    114       19.70          0.1815E+06
   2725      1     16    115       16.80          0.1815E+06
   2726      1     16    116       8.850          0.1815E+06
   2727      1     16    117       6.550          0.1815E+06
   2728      1     16    118       6.590          0.1815E+06
   2729      1     16    119       6.570          0.1815E+06
   2730      1     16    120       6.480          0.1815E+06
   2731      1     16    121       6.360          0.1815E+06
   2732      1     16    122       6.190          0.1815E+06
   2733      1     16    123       6.190          0.1815E+06
   2734      1     16    124       6.150          0.1815E+06
   2735      1     16    125       7.010          0.1815E+06
   2736      1     16    126       6.170          0.1815E+06
   2737      1     16    127       6.090          0.1815E+06
   2738      1     16    128       6.670          0.1815E+06
   2739      1     16    129       7.610          0.1815E+06
   2740      1     16    130       6.780          0.1815E+06
   2741      1     16    131       11.43          0.1815E+06
   2742      1     16    132       20.70          0.1815E+06
   2743      1     16    133       29.20          0.1815E+06
   2744      1     16    134       34.70          0.1815E+06
   2745      1     16    135       36.60          0.1815E+06
   2746      1     16    136       37.00          0.1815E+06
   2747      1     16    137       37.20          0.1815E+06
   2748      1     16    138       37.80          0.1815E+06
   2749      1     16    139       39.00          0.1815E+06
   2750      1     16    140       40.00          0.1815E+06
   2751      1     16    141       41.20          0.1815E+06
   2752      1     16    142       43.60          0.1815E+06
   2753      1     16    143       45.50          0.1815E+06
   2754      1     16    144       46.50          0.1815E+06
   2755      1     16    145       51.20          0.1815E+06
   2756      1     16    146       55.80          0.1815E+06
   2757      1     16    147       60.40          0.1815E+06
   2758      1     16    148       65.20          0.1815E+06
   2759      1     16    149       70.60          0.1815E+06
   2760      1     16    150       79.60          0.1815E+06
   2761      1     16    151       83.70          0.1815E+06
   2762      1     16    152       88.80          0.1815E+06
   2763      1     16    153       80.50          0.1815E+06
   2764      1     16    154       82.70          0.1815E+06
   2765      1     16    155       69.90          0.1815E+06
   2766      1     16    156       65.10          0.1815E+06
   2767      1     16    157       59.60          0.1815E+06
   2768      1     16    158       53.90          0.1815E+06
   2769      1     16    159       49.40          0.1815E+06
   2770      1     16    160       44.70          0.1815E+06
   2771      1     16    161       41.20          0.1815E+06
   2772      1     16    162       38.60          0.1815E+06
   2773      1     16    163       37.60          0.1815E+06
   2774      1     16    164       36.70          0.1815E+06
   2775      1     16    165       35.80          0.1815E+06
   2776      1     16    166       35.40          0.1815E+06
   2777      1     16    167       35.20          0.1815E+06
   2778      1     16    168       34.70          0.1815E+06
   2779      1     16    169       34.00          0.1815E+06
   2780      1     16    170       33.80          0.1815E+06
   2781      1     16    171       33.60          0.1815E+06
   2782      1     16    172       33.30          0.1815E+06
   2783      1     16    173       33.10          0.1815E+06
   2784      1     16    174       32.80          0.1815E+06
   2785      1     17      1       7.920          0.1815E+06
   2786      1     17      2       8.420          0.1815E+06
   2787      1     17      3       9.130          0.1815E+06
   2788      1     17      4       4.410          0.1815E+06
   2789      1     17      5       4.410          0.1815E+06
   2790      1     17      6       3.410          0.1815E+06
   2791      1     17      7       3.410          0.1815E+06
   2792      1     17      8       1.410          0.1815E+06
   2793      1     17      9       1.410          0.1815E+06
   2794      1     17     10       2.410          0.1815E+06
   2795      1     17     11       2.410          0.1815E+06
   2796      1     17     12       5.410          0.1815E+06
   2797      1     17     13       8.260          0.1815E+06
   2798      1     17     14       9.210          0.1815E+06
   2799      1     17     15      0.6200          0.1815E+06
   2800      1     17     16      0.4200          0.1815E+06
   2801      1     17     17      0.4100          0.1815E+06
   2802      1     17     18       2.420          0.1815E+06
   2803      1     17     19       3.420          0.1815E+06
   2804      1     17     20       3.420          0.1815E+06
   2805      1     17     21       3.420          0.1815E+06
   2806      1     17     22       3.420          0.1815E+06
   2807      1     17     23      0.4200          0.1815E+06
   2808      1     17     24       1.420          0.1815E+06
   2809      1     17     25       1.420          0.1815E+06
   2810      1     17     26       1.420          0.1815E+06
   2811      1     17     27       1.420          0.1815E+06
   2812      1     17     28       9.510          0.1815E+06
   2813      1     17     29       8.310          0.1815E+06
   2814      1     17     30       13.56          0.1815E+06
   2815      1     17     31       9.090          0.1815E+06
   2816      1     17     32       7.150          0.1815E+06
   2817      1     17     33       6.820          0.1815E+06
   2818      1     17     34       9.430          0.1815E+06
   2819      1     17     35       8.590          0.1815E+06
   2820      1     17     36       9.020          0.1815E+06
   2821      1     17     37       8.980          0.1815E+06
   2822      1     17     38       9.460          0.1815E+06
   2823      1     17     39       9.110          0.1815E+06
   2824      1     17     40       9.220          0.1815E+06
   2825      1     17     41       9.640          0.1815E+06
   2826      1     17     42       10.96          0.1815E+06
   2827      1     17     43       14.57          0.1815E+06
   2828      1     17     44       18.32          0.1815E+06
   2829      1     17     45       21.47          0.1815E+06
   2830      1     17     46       22.88          0.1815E+06
   2831      1     17     47       23.19          0.1815E+06
   2832      1     17     48       23.29          0.1815E+06
   2833      1     17     49       23.67          0.1815E+06
   2834      1     17     50       23.95          0.1815E+06
   2835      1     17     51       23.12          0.1815E+06
   2836      1     17     52       24.89          0.1815E+06
   2837      1     17     53       25.53          0.1815E+06
   2838      1     17     54       25.63          0.1815E+06
   2839      1     17     55       24.70          0.1815E+06
   2840      1     17     56       13.64          0.1815E+06
   2841      1     17     57       10.27          0.1815E+06
   2842      1     17     58       9.640          0.1815E+06
   2843      1     17     59       9.380          0.1815E+06
   2844      1     17     60       12.27          0.1815E+06
   2845      1     17     61       16.01          0.1815E+06
   2846      1     17     62       21.92          0.1815E+06
   2847      1     17     63       26.09          0.1815E+06
   2848      1     17     64       28.82          0.1815E+06
   2849      1     17     65       30.18          0.1815E+06
   2850      1     17     66       30.72          0.1815E+06
   2851      1     17     67       31.48          0.1815E+06
   2852      1     17     68       32.31          0.1815E+06
   2853      1     17     69       35.00          0.1815E+06
   2854      1     17     70       36.27          0.1815E+06
   2855      1     17     71       37.68          0.1815E+06
   2856      1     17     72       37.41          0.1815E+06
   2857      1     17     73       37.60          0.1815E+06
   2858      1     17     74       36.50          0.1815E+06
   2859      1     17     75       33.10          0.1815E+06
   2860      1     17     76       30.70          0.1815E+06
   2861      1     17     77       33.70          0.1815E+06
   2862      1     17     78       34.10          0.1815E+06
   2863      1     17     79       27.80          0.1815E+06
   2864      1     17     80       21.00          0.1815E+06
   2865      1     17     81       15.60          0.1815E+06
   2866      1     17     82       14.90          0.1815E+06
   2867      1     17     83       13.30          0.1815E+06
   2868      1     17     84       12.00          0.1815E+06
   2869      1     17     85       12.00          0.1815E+06
   2870      1     17     86       13.90          0.1815E+06
   2871      1     17     87       16.50          0.1815E+06
   2872      1     17     88       17.20          0.1815E+06
   2873      1     17     89       17.60          0.1815E+06
   2874      1     17     90       19.20          0.1815E+06
   2875      1     17     91       17.60          0.1815E+06
   2876      1     17     92       20.30          0.1815E+06
   2877      1     17     93       20.40          0.1815E+06
   2878      1     17     94       17.00          0.1815E+06
   2879      1     17     95       13.30          0.1815E+06
   2880      1     17     96       14.30          0.1815E+06
   2881      1     17     97       16.00          0.1815E+06
   2882      1     17     98       14.00          0.1815E+06
   2883      1     17     99       14.80          0.1815E+06
   2884      1     17    100       22.80          0.1815E+06
   2885      1     17    101       26.20          0.1815E+06
   2886      1     17    102       27.70          0.1815E+06
   2887      1     17    103       27.10          0.1815E+06
   2888      1     17    104       25.80          0.1815E+06
   2889      1     17    105       22.60          0.1815E+06
   2890      1     17    106       20.40          0.1815E+06
   2891      1     17    107       26.30          0.1815E+06
   2892      1     17    108       28.40          0.1815E+06
   2893      1     17    109       27.70          0.1815E+06
   2894      1     17    110       25.10          0.1815E+06
   2895      1     17    111       18.60          0.1815E+06
   2896      1     17    112       14.70          0.1815E+06
   2897      1     17    113       16.90          0.1815E+06
   2898      1     17    114       18.50          0.1815E+06
   2899      1     17    115       13.99          0.1815E+06
   2900      1     17    116       7.320          0.1815E+06
   2901      1     17    117       6.460          0.1815E+06
   2902      1     17    118       6.510          0.1815E+06
   2903      1     17    119       6.380          0.1815E+06
   2904      1     17    120       6.250          0.1815E+06
   2905      1     17    121       6.250          0.1815E+06
   2906      1     17    122       6.210          0.1815E+06
   2907      1     17    123       6.190          0.1815E+06
   2908      1     17    124       6.090          0.1815E+06
   2909      1     17    125       7.570          0.1815E+06
   2910      1     17    126       6.400          0.1815E+06
   2911      1     17    127       8.360          0.1815E+06
   2912      1     17    128       8.760          0.1815E+06
   2913      1     17    129       8.320          0.1815E+06
   2914      1     17    130       11.12          0.1815E+06
   2915      1     17    131       17.40          0.1815E+06
   2916      1     17    132       27.00          0.1815E+06
   2917      1     17    133       33.40          0.1815E+06
   2918      1     17    134       36.50          0.1815E+06
   2919      1     17    135       37.80          0.1815E+06
   2920      1     17    136       38.00          0.1815E+06
   2921      1     17    137       37.90          0.1815E+06
   2922      1     17    138       38.70          0.1815E+06
   2923      1     17    139       40.10          0.1815E+06
   2924      1     17    140       42.20          0.1815E+06
   2925      1     17    141       45.10          0.1815E+06
   2926      1     17    142       47.10          0.1815E+06
   2927      1     17    143       49.40          0.1815E+06
   2928      1     17    144       51.70          0.1815E+06
   2929      1     17    145       54.80          0.1815E+06
   2930      1     17    146       60.80          0.1815E+06
   2931      1     17    147       66.80          0.1815E+06
   2932      1     17    148       73.20          0.1815E+06
   2933      1     17    149       78.40          0.1815E+06
   2934      1     17    150       91.50          0.1815E+06
   2935      1     17    151       98.10          0.1815E+06
   2936      1     17    152       88.20          0.1815E+06
   2937      1     17    153       91.40          0.1815E+06
   2938      1     17    154       91.30          0.1815E+06
   2939      1     17    155       77.00          0.1815E+06
   2940      1     17    156       70.10          0.1815E+06
   2941      1     17    157       63.00          0.1815E+06
   2942      1     17    158       56.30          0.1815E+06
   2943      1     17    159       50.50          0.1815E+06
   2944      1     17    160       45.50          0.1815E+06
   2945      1     17    161       41.60          0.1815E+06
   2946      1     17    162       39.10          0.1815E+06
   2947      1     17    163       37.90          0.1815E+06
   2948      1     17    164       36.50          0.1815E+06
   2949      1     17    165       35.20          0.1815E+06
   2950      1     17    166       34.20          0.1815E+06
   2951      1     17    167       33.70          0.1815E+06
   2952      1     17    168       34.10          0.1815E+06
   2953      1     17    169       34.10          0.1815E+06
   2954      1     17    170       33.80          0.1815E+06
   2955      1     17    171       33.50          0.1815E+06
   2956      1     17    172       33.00          0.1815E+06
   2957      1     17    173       32.40          0.1815E+06
   2958      1     17    174       32.00          0.1815E+06
   2959      1     18      1       3.410          0.1815E+06
   2960      1     18      2       3.400          0.1815E+06
   2961      1     18      3       3.400          0.1815E+06
   2962      1     18      4       3.400          0.1815E+06
   2963      1     18      5       3.410          0.1815E+06
   2964      1     18      6       1.950          0.1815E+06
   2965      1     18      7       1.410          0.1815E+06
   2966      1     18      8       2.410          0.1815E+06
   2967      1     18      9       2.410          0.1815E+06
   2968      1     18     10       2.420          0.1815E+06
   2969      1     18     11       3.420          0.1815E+06
   2970      1     18     12       5.920          0.1815E+06
   2971      1     18     13       8.340          0.1815E+06
   2972      1     18     14       12.10          0.1815E+06
   2973      1     18     15       4.460          0.1815E+06
   2974      1     18     16      0.9400          0.1815E+06
   2975      1     18     17      0.4300          0.1815E+06
   2976      1     18     18       1.410          0.1815E+06
   2977      1     18     19       3.420          0.1815E+06
   2978      1     18     20       3.420          0.1815E+06
   2979      1     18     21       3.420          0.1815E+06
   2980      1     18     22       3.420          0.1815E+06
   2981      1     18     23      0.4200          0.1815E+06
   2982      1     18     24       1.420          0.1815E+06
   2983      1     18     25       6.420          0.1815E+06
   2984      1     18     26       6.420          0.1815E+06
   2985      1     18     27       8.020          0.1815E+06
   2986      1     18     28       16.95          0.1815E+06
   2987      1     18     29       14.72          0.1815E+06
   2988      1     18     30       14.52          0.1815E+06
   2989      1     18     31       10.06          0.1815E+06
   2990      1     18     32       8.470          0.1815E+06
   2991      1     18     33       7.550          0.1815E+06
   2992      1     18     34       7.820          0.1815E+06
   2993      1     18     35       9.600          0.1815E+06
   2994      1     18     36       10.47          0.1815E+06
   2995      1     18     37       11.46          0.1815E+06
   2996      1     18     38       9.750          0.1815E+06
   2997      1     18     39       9.850          0.1815E+06
   2998      1     18     40       10.78          0.1815E+06
   2999      1     18     41       10.72          0.1815E+06
   3000      1     18     42       11.84          0.1815E+06
   3001      1     18     43       16.38          0.1815E+06
   3002      1     18     44       19.04          0.1815E+06
   3003      1     18     45       20.75          0.1815E+06
   3004      1     18     46       22.57          0.1815E+06
   3005      1     18     47       22.62          0.1815E+06
   3006      1     18     48       23.77          0.1815E+06
   3007      1     18     49       23.98          0.1815E+06
   3008      1     18     50       23.98          0.1815E+06
   3009      1     18     51       23.98          0.1815E+06
   3010      1     18     52       25.05          0.1815E+06
   3011      1     18     53       26.20          0.1815E+06
   3012      1     18     54       26.47          0.1815E+06
   3013      1     18     55       26.44          0.1815E+06
   3014      1     18     56       24.50          0.1815E+06
   3015      1     18     57       16.00          0.1815E+06
   3016      1     18     58       13.10          0.1815E+06
   3017      1     18     59       12.98          0.1815E+06
   3018      1     18     60       15.93          0.1815E+06
   3019      1     18     61       19.44          0.1815E+06
   3020      1     18     62       23.53          0.1815E+06
   3021      1     18     63       26.67          0.1815E+06
   3022      1     18     64       27.92          0.1815E+06
   3023      1     18     65       30.15          0.1815E+06
   3024      1     18     66       30.90          0.1815E+06
   3025      1     18     67       31.96          0.1815E+06
   3026      1     18     68       33.45          0.1815E+06
   3027      1     18     69       35.99          0.1815E+06
   3028      1     18     70       37.61          0.1815E+06
   3029      1     18     71       38.45          0.1815E+06
   3030      1     18     72       38.24          0.1815E+06
   3031      1     18     73       37.50          0.1815E+06
   3032      1     18     74       37.60          0.1815E+06
   3033      1     18     75       35.30          0.1815E+06
   3034      1     18     76       35.60          0.1815E+06
   3035      1     18     77       36.20          0.1815E+06
   3036      1     18     78       35.90          0.1815E+06
   3037      1     18     79       31.30          0.1815E+06
   3038      1     18     80       22.20          0.1815E+06
   3039      1     18     81       15.60          0.1815E+06
   3040      1     18     82       15.30          0.1815E+06
   3041      1     18     83       14.10          0.1815E+06
   3042      1     18     84       12.80          0.1815E+06
   3043      1     18     85       12.90          0.1815E+06
   3044      1     18     86       14.90          0.1815E+06
   3045      1     18     87       16.60          0.1815E+06
   3046      1     18     88       17.00          0.1815E+06
   3047      1     18     89       17.00          0.1815E+06
   3048      1     18     90       16.90          0.1815E+06
   3049      1     18     91       16.60          0.1815E+06
   3050      1     18     92       16.70          0.1815E+06
   3051      1     18     93       16.20          0.1815E+06
   3052      1     18     94       15.80          0.1815E+06
   3053      1     18     95       11.19          0.1815E+06
   3054      1     18     96       12.52          0.1815E+06
   3055      1     18     97       13.10          0.1815E+06
   3056      1     18     98       12.60          0.1815E+06
   3057      1     18     99       13.90          0.1815E+06
   3058      1     18    100       20.30          0.1815E+06
   3059      1     18    101       23.10          0.1815E+06
   3060      1     18    102       23.30          0.1815E+06
   3061      1     18    103       22.80          0.1815E+06
   3062      1     18    104       20.90          0.1815E+06
   3063      1     18    105       17.10          0.1815E+06
   3064      1     18    106       21.80          0.1815E+06
   3065      1     18    107       27.00          0.1815E+06
   3066      1     18    108       27.80          0.1815E+06
   3067      1     18    109       26.00          0.1815E+06
   3068      1     18    110       20.60          0.1815E+06
   3069      1     18    111       13.80          0.1815E+06
   3070      1     18    112       10.50          0.1815E+06
   3071      1     18    113       11.43          0.1815E+06
   3072      1     18    114       11.74          0.1815E+06
   3073      1     18    115       8.800          0.1815E+06
   3074      1     18    116       6.530          0.1815E+06
   3075      1     18    117       6.440          0.1815E+06
   3076      1     18    118       6.360          0.1815E+06
   3077      1     18    119       6.340          0.1815E+06
   3078      1     18    120       6.280          0.1815E+06
   3079      1     18    121       6.210          0.1815E+06
   3080      1     18    122       6.050          0.1815E+06
   3081      1     18    123       6.190          0.1815E+06
   3082      1     18    124       6.880          0.1815E+06
   3083      1     18    125       6.710          0.1815E+06
   3084      1     18    126       6.900          0.1815E+06
   3085      1     18    127       8.570          0.1815E+06
   3086      1     18    128       10.14          0.1815E+06
   3087      1     18    129       16.80          0.1815E+06
   3088      1     18    130       19.40          0.1815E+06
   3089      1     18    131       24.40          0.1815E+06
   3090      1     18    132       31.30          0.1815E+06
   3091      1     18    133       35.60          0.1815E+06
   3092      1     18    134       37.70          0.1815E+06
   3093      1     18    135       37.60          0.1815E+06
   3094      1     18    136       38.10          0.1815E+06
   3095      1     18    137       38.80          0.1815E+06
   3096      1     18    138       39.90          0.1815E+06
   3097      1     18    139       42.50          0.1815E+06
   3098      1     18    140       46.40          0.1815E+06
   3099      1     18    141       50.60          0.1815E+06
   3100      1     18    142       55.20          0.1815E+06
   3101      1     18    143       57.70          0.1815E+06
   3102      1     18    144       57.50          0.1815E+06
   3103      1     18    145       60.10          0.1815E+06
   3104      1     18    146       66.60          0.1815E+06
   3105      1     18    147       75.10          0.1815E+06
   3106      1     18    148       84.20          0.1815E+06
   3107      1     18    149       94.30          0.1815E+06
   3108      1     18    150       100.7          0.1815E+06
   3109      1     18    151       86.40          0.1815E+06
   3110      1     18    152       84.40          0.1815E+06
   3111      1     18    153       106.8          0.1815E+06
   3112      1     18    154       98.20          0.1815E+06
   3113      1     18    155       80.60          0.1815E+06
   3114      1     18    156       73.70          0.1815E+06
   3115      1     18    157       65.00          0.1815E+06
   3116      1     18    158       57.40          0.1815E+06
   3117      1     18    159       51.60          0.1815E+06
   3118      1     18    160       46.60          0.1815E+06
   3119      1     18    161       41.80          0.1815E+06
   3120      1     18    162       38.90          0.1815E+06
   3121      1     18    163       37.20          0.1815E+06
   3122      1     18    164       36.00          0.1815E+06
   3123      1     18    165       34.60          0.1815E+06
   3124      1     18    166       33.40          0.1815E+06
   3125      1     18    167       32.50          0.1815E+06
   3126      1     18    168       33.00          0.1815E+06
   3127      1     18    169       33.40          0.1815E+06
   3128      1     18    170       33.00          0.1815E+06
   3129      1     18    171       33.00          0.1815E+06
   3130      1     18    172       32.40          0.1815E+06
   3131      1     18    173       31.00          0.1815E+06
   3132      1     18    174       30.70          0.1815E+06
   3133      1     19      1       1.410          0.1815E+06
   3134      1     19      2       2.400          0.1815E+06
   3135      1     19      3       2.400          0.1815E+06
   3136      1     19      4       1.840          0.1815E+06
   3137      1     19      5      0.7300          0.1815E+06
   3138      1     19      6      0.8500          0.1815E+06
   3139      1     19      7       2.410          0.1815E+06
   3140      1     19      8       2.410          0.1815E+06
   3141      1     19      9       2.410          0.1815E+06
   3142      1     19     10       3.280          0.1815E+06
   3143      1     19     11       3.410          0.1815E+06
   3144      1     19     12       11.31          0.1815E+06
   3145      1     19     13       15.06          0.1815E+06
   3146      1     19     14       10.86          0.1815E+06
   3147      1     19     15       8.650          0.1815E+06
   3148      1     19     16       1.350          0.1815E+06
   3149      1     19     17      0.4200          0.1815E+06
   3150      1     19     18       1.410          0.1815E+06
   3151      1     19     19       2.420          0.1815E+06
   3152      1     19     20       2.410          0.1815E+06
   3153      1     19     21       2.410          0.1815E+06
   3154      1     19     22      0.4200          0.1815E+06
   3155      1     19     23       4.420          0.1815E+06
   3156      1     19     24       2.710          0.1815E+06
   3157      1     19     25       8.900          0.1815E+06
   3158      1     19     26       8.890          0.1815E+06
   3159      1     19     27       23.95          0.1815E+06
   3160      1     19     28       17.11          0.1815E+06
   3161      1     19     29       12.44          0.1815E+06
   3162      1     19     30       11.85          0.1815E+06
   3163      1     19     31       10.07          0.1815E+06
   3164      1     19     32       8.930          0.1815E+06
   3165      1     19     33       9.360          0.1815E+06
   3166      1     19     34       9.250          0.1815E+06
   3167      1     19     35       9.710          0.1815E+06
   3168      1     19     36       9.390          0.1815E+06
   3169      1     19     37       11.39          0.1815E+06
   3170      1     19     38       10.67          0.1815E+06
   3171      1     19     39       11.53          0.1815E+06
   3172      1     19     40       12.78          0.1815E+06
   3173      1     19     41       11.26          0.1815E+06
   3174      1     19     42       14.11          0.1815E+06
   3175      1     19     43       18.54          0.1815E+06
   3176      1     19     44       17.95          0.1815E+06
   3177      1     19     45       21.30          0.1815E+06
   3178      1     19     46       23.14          0.1815E+06
   3179      1     19     47       23.19          0.1815E+06
   3180      1     19     48       23.96          0.1815E+06
   3181      1     19     49       24.63          0.1815E+06
   3182      1     19     50       24.62          0.1815E+06
   3183      1     19     51       24.52          0.1815E+06
   3184      1     19     52       24.90          0.1815E+06
   3185      1     19     53       25.82          0.1815E+06
   3186      1     19     54       26.56          0.1815E+06
   3187      1     19     55       26.48          0.1815E+06
   3188      1     19     56       26.13          0.1815E+06
   3189      1     19     57       24.70          0.1815E+06
   3190      1     19     58       23.70          0.1815E+06
   3191      1     19     59       21.02          0.1815E+06
   3192      1     19     60       21.75          0.1815E+06
   3193      1     19     61       22.94          0.1815E+06
   3194      1     19     62       26.02          0.1815E+06
   3195      1     19     63       28.25          0.1815E+06
   3196      1     19     64       29.26          0.1815E+06
   3197      1     19     65       29.79          0.1815E+06
   3198      1     19     66       30.73          0.1815E+06
   3199      1     19     67       32.08          0.1815E+06
   3200      1     19     68       32.93          0.1815E+06
   3201      1     19     69       35.66          0.1815E+06
   3202      1     19     70       37.18          0.1815E+06
   3203      1     19     71       38.09          0.1815E+06
   3204      1     19     72       37.43          0.1815E+06
   3205      1     19     73       37.70          0.1815E+06
   3206      1     19     74       37.40          0.1815E+06
   3207      1     19     75       36.40          0.1815E+06
   3208      1     19     76       36.50          0.1815E+06
   3209      1     19     77       37.30          0.1815E+06
   3210      1     19     78       35.90          0.1815E+06
   3211      1     19     79       30.50          0.1815E+06
   3212      1     19     80       21.60          0.1815E+06
   3213      1     19     81       15.50          0.1815E+06
   3214      1     19     82       13.50          0.1815E+06
   3215      1     19     83       13.00          0.1815E+06
   3216      1     19     84       13.20          0.1815E+06
   3217      1     19     85       16.30          0.1815E+06
   3218      1     19     86       16.10          0.1815E+06
   3219      1     19     87       16.30          0.1815E+06
   3220      1     19     88       16.70          0.1815E+06
   3221      1     19     89       16.80          0.1815E+06
   3222      1     19     90       16.80          0.1815E+06
   3223      1     19     91       15.90          0.1815E+06
   3224      1     19     92       14.00          0.1815E+06
   3225      1     19     93       13.60          0.1815E+06
   3226      1     19     94       10.55          0.1815E+06
   3227      1     19     95       9.470          0.1815E+06
   3228      1     19     96       9.300          0.1815E+06
   3229      1     19     97       10.13          0.1815E+06
   3230      1     19     98       10.08          0.1815E+06
   3231      1     19     99       12.30          0.1815E+06
   3232      1     19    100       16.80          0.1815E+06
   3233      1     19    101       18.60          0.1815E+06
   3234      1     19    102       18.20          0.1815E+06
   3235      1     19    103       17.40          0.1815E+06
   3236      1     19    104       15.70          0.1815E+06
   3237      1     19    105       16.70          0.1815E+06
   3238      1     19    106       23.80          0.1815E+06
   3239      1     19    107       27.70          0.1815E+06
   3240      1     19    108       26.20          0.1815E+06
   3241      1     19    109       22.70          0.1815E+06
   3242      1     19    110       15.90          0.1815E+06
   3243      1     19    111       10.47          0.1815E+06
   3244      1     19    112       7.780          0.1815E+06
   3245      1     19    113       7.130          0.1815E+06
   3246      1     19    114       6.860          0.1815E+06
   3247      1     19    115       6.590          0.1815E+06
   3248      1     19    116       6.510          0.1815E+06
   3249      1     19    117       6.400          0.1815E+06
   3250      1     19    118       6.250          0.1815E+06
   3251      1     19    119       6.320          0.1815E+06
   3252      1     19    120       6.150          0.1815E+06
   3253      1     19    121       6.110          0.1815E+06
   3254      1     19    122       6.070          0.1815E+06
   3255      1     19    123       6.190          0.1815E+06
   3256      1     19    124       7.460          0.1815E+06
   3257      1     19    125       6.900          0.1815E+06
   3258      1     19    126       7.260          0.1815E+06
   3259      1     19    127       9.930          0.1815E+06
   3260      1     19    128       17.90          0.1815E+06
   3261      1     19    129       24.10          0.1815E+06
   3262      1     19    130       25.60          0.1815E+06
   3263      1     19    131       31.00          0.1815E+06
   3264      1     19    132       35.10          0.1815E+06
   3265      1     19    133       36.60          0.1815E+06
   3266      1     19    134       37.20          0.1815E+06
   3267      1     19    135       37.80          0.1815E+06
   3268      1     19    136       38.50          0.1815E+06
   3269      1     19    137       39.70          0.1815E+06
   3270      1     19    138       41.70          0.1815E+06
   3271      1     19    139       46.00          0.1815E+06
   3272      1     19    140       51.00          0.1815E+06
   3273      1     19    141       57.00          0.1815E+06
   3274      1     19    142       62.60          0.1815E+06
   3275      1     19    143       66.80          0.1815E+06
   3276      1     19    144       65.60          0.1815E+06
   3277      1     19    145       67.30          0.1815E+06
   3278      1     19    146       76.30          0.1815E+06
   3279      1     19    147       85.40          0.1815E+06
   3280      1     19    148       94.20          0.1815E+06
   3281      1     19    149       104.6          0.1815E+06
   3282      1     19    150       85.90          0.1815E+06
   3283      1     19    151       87.20          0.1815E+06
   3284      1     19    152       85.30          0.1815E+06
   3285      1     19    153       106.9          0.1815E+06
   3286      1     19    154       104.4          0.1815E+06
   3287      1     19    155       83.30          0.1815E+06
   3288      1     19    156       74.00          0.1815E+06
   3289      1     19    157       65.50          0.1815E+06
   3290      1     19    158       57.10          0.1815E+06
   3291      1     19    159       51.30          0.1815E+06
   3292      1     19    160       46.10          0.1815E+06
   3293      1     19    161       41.60          0.1815E+06
   3294      1     19    162       37.50          0.1815E+06
   3295      1     19    163       35.40          0.1815E+06
   3296      1     19    164       35.30          0.1815E+06
   3297      1     19    165       34.80          0.1815E+06
   3298      1     19    166       33.20          0.1815E+06
   3299      1     19    167       32.00          0.1815E+06
   3300      1     19    168       32.10          0.1815E+06
   3301      1     19    169       32.10          0.1815E+06
   3302      1     19    170       31.80          0.1815E+06
   3303      1     19    171       31.60          0.1815E+06
   3304      1     19    172       30.70          0.1815E+06
   3305      1     19    173       29.90          0.1815E+06
   3306      1     19    174       30.40          0.1815E+06
   3307      1     20      1       1.410          0.1815E+06
   3308      1     20      2       2.400          0.1815E+06
   3309      1     20      3       2.400          0.1815E+06
   3310      1     20      4       1.840          0.1815E+06
   3311      1     20      5      0.7300          0.1815E+06
   3312      1     20      6      0.8500          0.1815E+06
   3313      1     20      7       2.410          0.1815E+06
   3314      1     20      8       2.410          0.1815E+06
   3315      1     20      9       2.410          0.1815E+06
   3316      1     20     10       3.280          0.1815E+06
   3317      1     20     11       3.410          0.1815E+06
   3318      1     20     12       8.720          0.1815E+06
   3319      1     20     13       13.88          0.1815E+06
   3320      1     20     14       7.550          0.1815E+06
   3321      1     20     15       8.690          0.1815E+06
   3322      1     20     16       3.960          0.1815E+06
   3323      1     20     17      0.4200          0.1815E+06
   3324      1     20     18       1.410          0.1815E+06
   3325      1     20     19       2.420          0.1815E+06
   3326      1     20     20       2.410          0.1815E+06
   3327      1     20     21       2.410          0.1815E+06
   3328      1     20     22      0.4200          0.1815E+06
   3329      1     20     23       4.420          0.1815E+06
   3330      1     20     24       9.670          0.1815E+06
   3331      1     20     25       23.29          0.1815E+06
   3332      1     20     26       18.77          0.1815E+06
   3333      1     20     27       17.27          0.1815E+06
   3334      1     20     28       12.34          0.1815E+06
   3335      1     20     29       11.48          0.1815E+06
   3336      1     20     30       11.03          0.1815E+06
   3337      1     20     31       10.78          0.1815E+06
   3338      1     20     32       12.43          0.1815E+06
   3339      1     20     33       11.10          0.1815E+06
   3340      1     20     34       10.13          0.1815E+06
   3341      1     20     35       10.00          0.1815E+06
   3342      1     20     36       9.940          0.1815E+06
   3343      1     20     37       10.47          0.1815E+06
   3344      1     20     38       10.85          0.1815E+06
   3345      1     20     39       11.30          0.1815E+06
   3346      1     20     40       11.56          0.1815E+06
   3347      1     20     41       15.31          0.1815E+06
   3348      1     20     42       15.71          0.1815E+06
   3349      1     20     43       18.92          0.1815E+06
   3350      1     20     44       20.40          0.1815E+06
   3351      1     20     45       20.51          0.1815E+06
   3352      1     20     46       22.18          0.1815E+06
   3353      1     20     47       23.35          0.1815E+06
   3354      1     20     48       24.01          0.1815E+06
   3355      1     20     49       24.13          0.1815E+06
   3356      1     20     50       24.31          0.1815E+06
   3357      1     20     51       23.95          0.1815E+06
   3358      1     20     52       25.13          0.1815E+06
   3359      1     20     53       25.50          0.1815E+06
   3360      1     20     54       26.18          0.1815E+06
   3361      1     20     55       26.92          0.1815E+06
   3362      1     20     56       27.03          0.1815E+06
   3363      1     20     57       26.25          0.1815E+06
   3364      1     20     58       26.35          0.1815E+06
   3365      1     20     59       26.70          0.1815E+06
   3366      1     20     60       26.98          0.1815E+06
   3367      1     20     61       27.28          0.1815E+06
   3368      1     20     62       26.85          0.1815E+06
   3369      1     20     63       28.05          0.1815E+06
   3370      1     20     64       29.09          0.1815E+06
   3371      1     20     65       29.85          0.1815E+06
   3372      1     20     66       30.21          0.1815E+06
   3373      1     20     67       31.11          0.1815E+06
   3374      1     20     68       32.88          0.1815E+06
   3375      1     20     69       34.25          0.1815E+06
   3376      1     20     70       35.33          0.1815E+06
   3377      1     20     71       34.90          0.1815E+06
   3378      1     20     72       36.04          0.1815E+06
   3379      1     20     73       36.80          0.1815E+06
   3380      1     20     74       36.90          0.1815E+06
   3381      1     20     75       36.80          0.1815E+06
   3382      1     20     76       36.50          0.1815E+06
   3383      1     20     77       37.50          0.1815E+06
   3384      1     20     78       34.60          0.1815E+06
   3385      1     20     79       27.40          0.1815E+06
   3386      1     20     80       19.60          0.1815E+06
   3387      1     20     81       14.40          0.1815E+06
   3388      1     20     82       12.00          0.1815E+06
   3389      1     20     83       10.90          0.1815E+06
   3390      1     20     84       14.90          0.1815E+06
   3391      1     20     85       17.30          0.1815E+06
   3392      1     20     86       17.00          0.1815E+06
   3393      1     20     87       16.40          0.1815E+06
   3394      1     20     88       16.30          0.1815E+06
   3395      1     20     89       16.70          0.1815E+06
   3396      1     20     90       16.50          0.1815E+06
   3397      1     20     91       15.20          0.1815E+06
   3398      1     20     92       13.50          0.1815E+06
   3399      1     20     93       11.11          0.1815E+06
   3400      1     20     94       9.550          0.1815E+06
   3401      1     20     95       8.810          0.1815E+06
   3402      1     20     96       8.640          0.1815E+06
   3403      1     20     97       9.470          0.1815E+06
   3404      1     20     98       9.640          0.1815E+06
   3405      1     20     99       10.49          0.1815E+06
   3406      1     20    100       13.40          0.1815E+06
   3407      1     20    101       14.50          0.1815E+06
   3408      1     20    102       13.90          0.1815E+06
   3409      1     20    103       12.02          0.1815E+06
   3410      1     20    104       12.70          0.1815E+06
   3411      1     20    105       18.70          0.1815E+06
   3412      1     20    106       24.40          0.1815E+06
   3413      1     20    107       27.40          0.1815E+06
   3414      1     20    108       25.40          0.1815E+06
   3415      1     20    109       18.70          0.1815E+06
   3416      1     20    110       12.04          0.1815E+06
   3417      1     20    111       8.430          0.1815E+06
   3418      1     20    112       6.940          0.1815E+06
   3419      1     20    113       6.940          0.1815E+06
   3420      1     20    114       6.860          0.1815E+06
   3421      1     20    115       6.630          0.1815E+06
   3422      1     20    116       6.510          0.1815E+06
   3423      1     20    117       6.300          0.1815E+06
   3424      1     20    118       6.340          0.1815E+06
   3425      1     20    119       6.280          0.1815E+06
   3426      1     20    120       5.940          0.1815E+06
   3427      1     20    121       6.230          0.1815E+06
   3428      1     20    122       6.340          0.1815E+06
   3429      1     20    123       7.400          0.1815E+06
   3430      1     20    124       8.250          0.1815E+06
   3431      1     20    125       8.180          0.1815E+06
   3432      1     20    126       8.300          0.1815E+06
   3433      1     20    127       11.48          0.1815E+06
   3434      1     20    128       17.30          0.1815E+06
   3435      1     20    129       29.00          0.1815E+06
   3436      1     20    130       32.00          0.1815E+06
   3437      1     20    131       35.10          0.1815E+06
   3438      1     20    132       36.00          0.1815E+06
   3439      1     20    133       36.00          0.1815E+06
   3440      1     20    134       36.90          0.1815E+06
   3441      1     20    135       37.80          0.1815E+06
   3442      1     20    136       38.40          0.1815E+06
   3443      1     20    137       41.00          0.1815E+06
   3444      1     20    138       44.20          0.1815E+06
   3445      1     20    139       48.90          0.1815E+06
   3446      1     20    140       55.20          0.1815E+06
   3447      1     20    141       62.00          0.1815E+06
   3448      1     20    142       69.40          0.1815E+06
   3449      1     20    143       75.00          0.1815E+06
   3450      1     20    144       77.20          0.1815E+06
   3451      1     20    145       80.00          0.1815E+06
   3452      1     20    146       86.50          0.1815E+06
   3453      1     20    147       94.00          0.1815E+06
   3454      1     20    148       107.0          0.1815E+06
   3455      1     20    149       117.1          0.1815E+06
   3456      1     20    150       90.20          0.1815E+06
   3457      1     20    151       86.20          0.1815E+06
   3458      1     20    152       90.90          0.1815E+06
   3459      1     20    153       113.3          0.1815E+06
   3460      1     20    154       107.0          0.1815E+06
   3461      1     20    155       86.80          0.1815E+06
   3462      1     20    156       75.30          0.1815E+06
   3463      1     20    157       66.80          0.1815E+06
   3464      1     20    158       58.30          0.1815E+06
   3465      1     20    159       51.10          0.1815E+06
   3466      1     20    160       44.90          0.1815E+06
   3467      1     20    161       39.80          0.1815E+06
   3468      1     20    162       34.70          0.1815E+06
   3469      1     20    163       32.80          0.1815E+06
   3470      1     20    164       33.90          0.1815E+06
   3471      1     20    165       33.70          0.1815E+06
   3472      1     20    166       33.00          0.1815E+06
   3473      1     20    167       31.20          0.1815E+06
   3474      1     20    168       28.80          0.1815E+06
   3475      1     20    169       29.70          0.1815E+06
   3476      1     20    170       30.30          0.1815E+06
   3477      1     20    171       30.10          0.1815E+06
   3478      1     20    172       29.50          0.1815E+06
   3479      1     20    173       28.80          0.1815E+06
   3480      1     20    174       28.20          0.1815E+06
   3481      1     21      1      0.4000          0.1815E+06
   3482      1     21      2      0.4100          0.1815E+06
   3483      1     21      3      0.4100          0.1815E+06
   3484      1     21      4      0.9300          0.1815E+06
   3485      1     21      5      0.4100          0.1815E+06
   3486      1     21      6      0.4100          0.1815E+06
   3487      1     21      7       1.540          0.1815E+06
   3488      1     21      8       2.410          0.1815E+06
   3489      1     21      9       2.410          0.1815E+06
   3490      1     21     10       2.420          0.1815E+06
   3491      1     21     11       3.410          0.1815E+06
   3492      1     21     12       6.570          0.1815E+06
   3493      1     21     13       12.32          0.1815E+06
   3494      1     21     14       9.100          0.1815E+06
   3495      1     21     15       6.670          0.1815E+06
   3496      1     21     16       10.68          0.1815E+06
   3497      1     21     17       2.920          0.1815E+06
   3498      1     21     18       2.420          0.1815E+06
   3499      1     21     19       2.420          0.1815E+06
   3500      1     21     20       1.430          0.1815E+06
   3501      1     21     21       1.430          0.1815E+06
   3502      1     21     22       4.710          0.1815E+06
   3503      1     21     23       10.38          0.1815E+06
   3504      1     21     24       20.78          0.1815E+06
   3505      1     21     25       21.10          0.1815E+06
   3506      1     21     26       13.61          0.1815E+06
   3507      1     21     27       15.22          0.1815E+06
   3508      1     21     28       11.51          0.1815E+06
   3509      1     21     29       12.59          0.1815E+06
   3510      1     21     30       10.98          0.1815E+06
   3511      1     21     31       11.02          0.1815E+06
   3512      1     21     32       11.52          0.1815E+06
   3513      1     21     33       10.00          0.1815E+06
   3514      1     21     34       10.85          0.1815E+06
   3515      1     21     35       10.57          0.1815E+06
   3516      1     21     36       11.73          0.1815E+06
   3517      1     21     37       10.59          0.1815E+06
   3518      1     21     38       13.84          0.1815E+06
   3519      1     21     39       16.36          0.1815E+06
   3520      1     21     40       14.47          0.1815E+06
   3521      1     21     41       13.27          0.1815E+06
   3522      1     21     42       16.84          0.1815E+06
   3523      1     21     43       18.38          0.1815E+06
   3524      1     21     44       19.13          0.1815E+06
   3525      1     21     45       20.14          0.1815E+06
   3526      1     21     46       20.92          0.1815E+06
   3527      1     21     47       23.09          0.1815E+06
   3528      1     21     48       23.45          0.1815E+06
   3529      1     21     49       24.25          0.1815E+06
   3530      1     21     50       24.61          0.1815E+06
   3531      1     21     51       24.73          0.1815E+06
   3532      1     21     52       24.93          0.1815E+06
   3533      1     21     53       25.28          0.1815E+06
   3534      1     21     54       26.43          0.1815E+06
   3535      1     21     55       26.78          0.1815E+06
   3536      1     21     56       26.88          0.1815E+06
   3537      1     21     57       27.22          0.1815E+06
   3538      1     21     58       27.42          0.1815E+06
   3539      1     21     59       28.04          0.1815E+06
   3540      1     21     60       27.62          0.1815E+06
   3541      1     21     61       28.18          0.1815E+06
   3542      1     21     62       27.45          0.1815E+06
   3543      1     21     63       27.82          0.1815E+06
   3544      1     21     64       26.75          0.1815E+06
   3545      1     21     65       29.50          0.1815E+06
   3546      1     21     66       30.15          0.1815E+06
   3547      1     21     67       31.12          0.1815E+06
   3548      1     21     68       31.52          0.1815E+06
   3549      1     21     69       31.23          0.1815E+06
   3550      1     21     70       32.81          0.1815E+06
   3551      1     21     71       33.20          0.1815E+06
   3552      1     21     72       34.52          0.1815E+06
   3553      1     21     73       35.60          0.1815E+06
   3554      1     21     74       36.40          0.1815E+06
   3555      1     21     75       36.80          0.1815E+06
   3556      1     21     76       36.20          0.1815E+06
   3557      1     21     77       33.60          0.1815E+06
   3558      1     21     78       29.40          0.1815E+06
   3559      1     21     79       23.70          0.1815E+06
   3560      1     21     80       17.50          0.1815E+06
   3561      1     21     81       13.90          0.1815E+06
   3562      1     21     82       12.20          0.1815E+06
   3563      1     21     83       12.00          0.1815E+06
   3564      1     21     84       13.40          0.1815E+06
   3565      1     21     85       16.60          0.1815E+06
   3566      1     21     86       16.10          0.1815E+06
   3567      1     21     87       15.80          0.1815E+06
   3568      1     21     88       15.90          0.1815E+06
   3569      1     21     89       16.20          0.1815E+06
   3570      1     21     90       16.20          0.1815E+06
   3571      1     21     91       15.60          0.1815E+06
   3572      1     21     92       14.40          0.1815E+06
   3573      1     21     93       11.16          0.1815E+06
   3574      1     21     94       9.560          0.1815E+06
   3575      1     21     95       9.140          0.1815E+06
   3576      1     21     96       8.770          0.1815E+06
   3577      1     21     97       8.800          0.1815E+06
   3578      1     21     98       9.050          0.1815E+06
   3579      1     21     99       9.590          0.1815E+06
   3580      1     21    100       10.55          0.1815E+06
   3581      1     21    101       11.05          0.1815E+06
   3582      1     21    102       9.880          0.1815E+06
   3583      1     21    103       10.07          0.1815E+06
   3584      1     21    104       13.00          0.1815E+06
   3585      1     21    105       20.30          0.1815E+06
   3586      1     21    106       25.20          0.1815E+06
   3587      1     21    107       27.50          0.1815E+06
   3588      1     21    108       26.10          0.1815E+06
   3589      1     21    109       17.80          0.1815E+06
   3590      1     21    110       10.18          0.1815E+06
   3591      1     21    111       7.480          0.1815E+06
   3592      1     21    112       6.840          0.1815E+06
   3593      1     21    113       6.570          0.1815E+06
   3594      1     21    114       6.570          0.1815E+06
   3595      1     21    115       6.500          0.1815E+06
   3596      1     21    116       6.340          0.1815E+06
   3597      1     21    117       6.320          0.1815E+06
   3598      1     21    118       6.250          0.1815E+06
   3599      1     21    119       6.260          0.1815E+06
   3600      1     21    120       6.210          0.1815E+06
   3601      1     21    121       6.570          0.1815E+06
   3602      1     21    122       9.350          0.1815E+06
   3603      1     21    123       9.240          0.1815E+06
   3604      1     21    124       11.68          0.1815E+06
   3605      1     21    125       11.77          0.1815E+06
   3606      1     21    126       10.90          0.1815E+06
   3607      1     21    127       9.770          0.1815E+06
   3608      1     21    128       16.30          0.1815E+06
   3609      1     21    129       28.80          0.1815E+06
   3610      1     21    130       32.80          0.1815E+06
   3611      1     21    131       34.50          0.1815E+06
   3612      1     21    132       32.60          0.1815E+06
   3613      1     21    133       35.10          0.1815E+06
   3614      1     21    134       37.40          0.1815E+06
   3615      1     21    135       38.20          0.1815E+06
   3616      1     21    136       39.40          0.1815E+06
   3617      1     21    137       42.00          0.1815E+06
   3618      1     21    138       46.30          0.1815E+06
   3619      1     21    139       51.80          0.1815E+06
   3620      1     21    140       59.20          0.1815E+06
   3621      1     21    141       66.40          0.1815E+06
   3622      1     21    142       73.60          0.1815E+06
   3623      1     21    143       81.10          0.1815E+06
   3624      1     21    144       89.90          0.1815E+06
   3625      1     21    145       92.30          0.1815E+06
   3626      1     21    146       96.00          0.1815E+06
   3627      1     21    147       103.1          0.1815E+06
   3628      1     21    148       111.8          0.1815E+06
   3629      1     21    149       122.2          0.1815E+06
   3630      1     21    150       103.6          0.1815E+06
   3631      1     21    151       92.00          0.1815E+06
   3632      1     21    152       94.90          0.1815E+06
   3633      1     21    153       119.2          0.1815E+06
   3634      1     21    154       109.4          0.1815E+06
   3635      1     21    155       88.90          0.1815E+06
   3636      1     21    156       77.10          0.1815E+06
   3637      1     21    157       68.60          0.1815E+06
   3638      1     21    158       59.60          0.1815E+06
   3639      1     21    159       52.10          0.1815E+06
   3640      1     21    160       44.80          0.1815E+06
   3641      1     21    161       38.10          0.1815E+06
   3642      1     21    162       32.90          0.1815E+06
   3643      1     21    163       30.00          0.1815E+06
   3644      1     21    164       30.10          0.1815E+06
   3645      1     21    165       30.00          0.1815E+06
   3646      1     21    166       29.40          0.1815E+06
   3647      1     21    167       26.80          0.1815E+06
   3648      1     21    168       24.70          0.1815E+06
   3649      1     21    169       26.50          0.1815E+06
   3650      1     21    170       28.60          0.1815E+06
   3651      1     21    171       28.80          0.1815E+06
   3652      1     21    172       28.60          0.1815E+06
   3653      1     21    173       27.30          0.1815E+06
   3654      1     21    174       26.70          0.1815E+06
   3655      1     22      1       1.630          0.1815E+06
   3656      1     22      2       1.740          0.1815E+06
   3657      1     22      3       1.740          0.1815E+06
   3658      1     22      4      0.4100          0.1815E+06
   3659      1     22      5      0.4100          0.1815E+06
   3660      1     22      6      0.4100          0.1815E+06
   3661      1     22      7       1.540          0.1815E+06
   3662      1     22      8       2.410          0.1815E+06
   3663      1     22      9       2.410          0.1815E+06
   3664      1     22     10       2.420          0.1815E+06
   3665      1     22     11       2.420          0.1815E+06
   3666      1     22     12       6.590          0.1815E+06
   3667      1     22     13       13.69          0.1815E+06
   3668      1     22     14       8.350          0.1815E+06
   3669      1     22     15       6.840          0.1815E+06
   3670      1     22     16       6.420          0.1815E+06
   3671      1     22     17       7.940          0.1815E+06
   3672      1     22     18       7.260          0.1815E+06
   3673      1     22     19       8.180          0.1815E+06
   3674      1     22     20       12.47          0.1815E+06
   3675      1     22     21       13.81          0.1815E+06
   3676      1     22     22       8.960          0.1815E+06
   3677      1     22     23       9.010          0.1815E+06
   3678      1     22     24       16.88          0.1815E+06
   3679      1     22     25       11.77          0.1815E+06
   3680      1     22     26       10.93          0.1815E+06
   3681      1     22     27       17.80          0.1815E+06
   3682      1     22     28       12.27          0.1815E+06
   3683      1     22     29       11.77          0.1815E+06
   3684      1     22     30       11.18          0.1815E+06
   3685      1     22     31       11.26          0.1815E+06
   3686      1     22     32       12.15          0.1815E+06
   3687      1     22     33       10.30          0.1815E+06
   3688      1     22     34       10.30          0.1815E+06
   3689      1     22     35       10.84          0.1815E+06
   3690      1     22     36       11.64          0.1815E+06
   3691      1     22     37       11.63          0.1815E+06
   3692      1     22     38       11.68          0.1815E+06
   3693      1     22     39       12.15          0.1815E+06
   3694      1     22     40       12.96          0.1815E+06
   3695      1     22     41       14.40          0.1815E+06
   3696      1     22     42       17.50          0.1815E+06
   3697      1     22     43       17.32          0.1815E+06
   3698      1     22     44       17.78          0.1815E+06
   3699      1     22     45       18.37          0.1815E+06
   3700      1     22     46       21.29          0.1815E+06
   3701      1     22     47       21.34          0.1815E+06
   3702      1     22     48       23.20          0.1815E+06
   3703      1     22     49       24.11          0.1815E+06
   3704      1     22     50       24.19          0.1815E+06
   3705      1     22     51       24.04          0.1815E+06
   3706      1     22     52       24.81          0.1815E+06
   3707      1     22     53       26.13          0.1815E+06
   3708      1     22     54       27.27          0.1815E+06
   3709      1     22     55       27.28          0.1815E+06
   3710      1     22     56       26.93          0.1815E+06
   3711      1     22     57       26.84          0.1815E+06
   3712      1     22     58       27.67          0.1815E+06
   3713      1     22     59       28.52          0.1815E+06
   3714      1     22     60       29.46          0.1815E+06
   3715      1     22     61       29.23          0.1815E+06
   3716      1     22     62       28.30          0.1815E+06
   3717      1     22     63       28.02          0.1815E+06
   3718      1     22     64       26.34          0.1815E+06
   3719      1     22     65       28.38          0.1815E+06
   3720      1     22     66       29.36          0.1815E+06
   3721      1     22     67       29.45          0.1815E+06
   3722      1     22     68       29.76          0.1815E+06
   3723      1     22     69       29.67          0.1815E+06
   3724      1     22     70       28.68          0.1815E+06
   3725      1     22     71       30.96          0.1815E+06
   3726      1     22     72       32.80          0.1815E+06
   3727      1     22     73       35.00          0.1815E+06
   3728      1     22     74       35.20          0.1815E+06
   3729      1     22     75       34.80          0.1815E+06
   3730      1     22     76       31.10          0.1815E+06
   3731      1     22     77       26.60          0.1815E+06
   3732      1     22     78       21.70          0.1815E+06
   3733      1     22     79       20.70          0.1815E+06
   3734      1     22     80       16.00          0.1815E+06
   3735      1     22     81       14.30          0.1815E+06
   3736      1     22     82       14.60          0.1815E+06
   3737      1     22     83       13.50          0.1815E+06
   3738      1     22     84       11.80          0.1815E+06
   3739      1     22     85       13.50          0.1815E+06
   3740      1     22     86       15.00          0.1815E+06
   3741      1     22     87       15.70          0.1815E+06
   3742      1     22     88       16.10          0.1815E+06
   3743      1     22     89       15.90          0.1815E+06
   3744      1     22     90       15.40          0.1815E+06
   3745      1     22     91       14.60          0.1815E+06
   3746      1     22     92       13.70          0.1815E+06
   3747      1     22     93       11.21          0.1815E+06
   3748      1     22     94       8.860          0.1815E+06
   3749      1     22     95       9.020          0.1815E+06
   3750      1     22     96       8.900          0.1815E+06
   3751      1     22     97       8.810          0.1815E+06
   3752      1     22     98       8.880          0.1815E+06
   3753      1     22     99       9.630          0.1815E+06
   3754      1     22    100       9.420          0.1815E+06
   3755      1     22    101       9.250          0.1815E+06
   3756      1     22    102       9.350          0.1815E+06
   3757      1     22    103       9.700          0.1815E+06
   3758      1     22    104       13.70          0.1815E+06
   3759      1     22    105       22.50          0.1815E+06
   3760      1     22    106       25.80          0.1815E+06
   3761      1     22    107       26.30          0.1815E+06
   3762      1     22    108       25.80          0.1815E+06
   3763      1     22    109       20.70          0.1815E+06
   3764      1     22    110       12.41          0.1815E+06
   3765      1     22    111       8.260          0.1815E+06
   3766      1     22    112       6.280          0.1815E+06
   3767      1     22    113       6.730          0.1815E+06
   3768      1     22    114       6.530          0.1815E+06
   3769      1     22    115       6.420          0.1815E+06
   3770      1     22    116       6.360          0.1815E+06
   3771      1     22    117       6.360          0.1815E+06
   3772      1     22    118       6.300          0.1815E+06
   3773      1     22    119       6.210          0.1815E+06
   3774      1     22    120       6.510          0.1815E+06
   3775      1     22    121       9.890          0.1815E+06
   3776      1     22    122       14.28          0.1815E+06
   3777      1     22    123       16.23          0.1815E+06
   3778      1     22    124       16.90          0.1815E+06
   3779      1     22    125       18.20          0.1815E+06
   3780      1     22    126       17.00          0.1815E+06
   3781      1     22    127       15.60          0.1815E+06
   3782      1     22    128       14.40          0.1815E+06
   3783      1     22    129       23.50          0.1815E+06
   3784      1     22    130       26.90          0.1815E+06
   3785      1     22    131       29.90          0.1815E+06
   3786      1     22    132       33.20          0.1815E+06
   3787      1     22    133       35.50          0.1815E+06
   3788      1     22    134       37.50          0.1815E+06
   3789      1     22    135       38.50          0.1815E+06
   3790      1     22    136       40.00          0.1815E+06
   3791      1     22    137       43.10          0.1815E+06
   3792      1     22    138       47.60          0.1815E+06
   3793      1     22    139       53.70          0.1815E+06
   3794      1     22    140       61.80          0.1815E+06
   3795      1     22    141       69.40          0.1815E+06
   3796      1     22    142       76.90          0.1815E+06
   3797      1     22    143       88.00          0.1815E+06
   3798      1     22    144       97.10          0.1815E+06
   3799      1     22    145       100.2          0.1815E+06
   3800      1     22    146       103.5          0.1815E+06
   3801      1     22    147       110.0          0.1815E+06
   3802      1     22    148       115.9          0.1815E+06
   3803      1     22    149       124.2          0.1815E+06
   3804      1     22    150       110.7          0.1815E+06
   3805      1     22    151       107.7          0.1815E+06
   3806      1     22    152       111.8          0.1815E+06
   3807      1     22    153       119.9          0.1815E+06
   3808      1     22    154       110.2          0.1815E+06
   3809      1     22    155       90.40          0.1815E+06
   3810      1     22    156       79.40          0.1815E+06
   3811      1     22    157       70.00          0.1815E+06
   3812      1     22    158       60.90          0.1815E+06
   3813      1     22    159       52.50          0.1815E+06
   3814      1     22    160       45.10          0.1815E+06
   3815      1     22    161       38.00          0.1815E+06
   3816      1     22    162       32.90          0.1815E+06
   3817      1     22    163       29.90          0.1815E+06
   3818      1     22    164       31.20          0.1815E+06
   3819      1     22    165       29.70          0.1815E+06
   3820      1     22    166       26.90          0.1815E+06
   3821      1     22    167       27.10          0.1815E+06
   3822      1     22    168       26.70          0.1815E+06
   3823      1     22    169       24.60          0.1815E+06
   3824      1     22    170       24.70          0.1815E+06
   3825      1     22    171       26.90          0.1815E+06
   3826      1     22    172       27.40          0.1815E+06
   3827      1     22    173       25.40          0.1815E+06
   3828      1     22    174       23.70          0.1815E+06
   3829      1     23      1       2.040          0.1815E+06
   3830      1     23      2       1.740          0.1815E+06
   3831      1     23      3       1.740          0.1815E+06
   3832      1     23      4      0.4100          0.1815E+06
   3833      1     23      5      0.4100          0.1815E+06
   3834      1     23      6      0.4700          0.1815E+06
   3835      1     23      7       1.410          0.1815E+06
   3836      1     23      8       2.410          0.1815E+06
   3837      1     23      9       2.410          0.1815E+06
   3838      1     23     10       2.740          0.1815E+06
   3839      1     23     11       4.910          0.1815E+06
   3840      1     23     12       6.670          0.1815E+06
   3841      1     23     13       12.69          0.1815E+06
   3842      1     23     14       13.36          0.1815E+06
   3843      1     23     15       7.730          0.1815E+06
   3844      1     23     16       7.750          0.1815E+06
   3845      1     23     17       8.480          0.1815E+06
   3846      1     23     18       8.800          0.1815E+06
   3847      1     23     19       10.25          0.1815E+06
   3848      1     23     20       8.100          0.1815E+06
   3849      1     23     21       9.430          0.1815E+06
   3850      1     23     22       9.860          0.1815E+06
   3851      1     23     23       9.360          0.1815E+06
   3852      1     23     24       17.37          0.1815E+06
   3853      1     23     25       13.55          0.1815E+06
   3854      1     23     26       13.52          0.1815E+06
   3855      1     23     27       16.76          0.1815E+06
   3856      1     23     28       14.85          0.1815E+06
   3857      1     23     29       12.98          0.1815E+06
   3858      1     23     30       12.21          0.1815E+06
   3859      1     23     31       13.72          0.1815E+06
   3860      1     23     32       12.11          0.1815E+06
   3861      1     23     33       15.10          0.1815E+06
   3862      1     23     34       13.10          0.1815E+06
   3863      1     23     35       13.53          0.1815E+06
   3864      1     23     36       13.90          0.1815E+06
   3865      1     23     37       13.93          0.1815E+06
   3866      1     23     38       17.17          0.1815E+06
   3867      1     23     39       16.62          0.1815E+06
   3868      1     23     40       13.31          0.1815E+06
   3869      1     23     41       13.48          0.1815E+06
   3870      1     23     42       16.05          0.1815E+06
   3871      1     23     43       16.37          0.1815E+06
   3872      1     23     44       17.13          0.1815E+06
   3873      1     23     45       19.44          0.1815E+06
   3874      1     23     46       21.45          0.1815E+06
   3875      1     23     47       22.88          0.1815E+06
   3876      1     23     48       22.72          0.1815E+06
   3877      1     23     49       23.55          0.1815E+06
   3878      1     23     50       24.00          0.1815E+06
   3879      1     23     51       24.56          0.1815E+06
   3880      1     23     52       24.29          0.1815E+06
   3881      1     23     53       25.02          0.1815E+06
   3882      1     23     54       26.34          0.1815E+06
   3883      1     23     55       26.76          0.1815E+06
   3884      1     23     56       26.73          0.1815E+06
   3885      1     23     57       26.76          0.1815E+06
   3886      1     23     58       26.12          0.1815E+06
   3887      1     23     59       28.01          0.1815E+06
   3888      1     23     60       29.40          0.1815E+06
   3889      1     23     61       29.82          0.1815E+06
   3890      1     23     62       28.79          0.1815E+06
   3891      1     23     63       28.04          0.1815E+06
   3892      1     23     64       26.62          0.1815E+06
   3893      1     23     65       27.59          0.1815E+06
   3894      1     23     66       27.34          0.1815E+06
   3895      1     23     67       27.52          0.1815E+06
   3896      1     23     68       27.30          0.1815E+06
   3897      1     23     69       27.21          0.1815E+06
   3898      1     23     70       28.62          0.1815E+06
   3899      1     23     71       30.78          0.1815E+06
   3900      1     23     72       31.50          0.1815E+06
   3901      1     23     73       32.50          0.1815E+06
   3902      1     23     74       31.40          0.1815E+06
   3903      1     23     75       26.60          0.1815E+06
   3904      1     23     76       22.90          0.1815E+06
   3905      1     23     77       20.80          0.1815E+06
   3906      1     23     78       19.10          0.1815E+06
   3907      1     23     79       16.90          0.1815E+06
   3908      1     23     80       15.10          0.1815E+06
   3909      1     23     81       15.50          0.1815E+06
   3910      1     23     82       15.30          0.1815E+06
   3911      1     23     83       15.30          0.1815E+06
   3912      1     23     84       11.80          0.1815E+06
   3913      1     23     85       11.70          0.1815E+06
   3914      1     23     86       15.20          0.1815E+06
   3915      1     23     87       16.60          0.1815E+06
   3916      1     23     88       16.40          0.1815E+06
   3917      1     23     89       15.70          0.1815E+06
   3918      1     23     90       13.50          0.1815E+06
   3919      1     23     91       11.55          0.1815E+06
   3920      1     23     92       10.67          0.1815E+06
   3921      1     23     93       10.29          0.1815E+06
   3922      1     23     94       9.110          0.1815E+06
   3923      1     23     95       8.890          0.1815E+06
   3924      1     23     96       8.780          0.1815E+06
   3925      1     23     97       8.810          0.1815E+06
   3926      1     23     98       8.780          0.1815E+06
   3927      1     23     99       8.730          0.1815E+06
   3928      1     23    100       9.610          0.1815E+06
   3929      1     23    101       9.600          0.1815E+06
   3930      1     23    102       8.860          0.1815E+06
   3931      1     23    103       9.870          0.1815E+06
   3932      1     23    104       15.10          0.1815E+06
   3933      1     23    105       22.20          0.1815E+06
   3934      1     23    106       24.10          0.1815E+06
   3935      1     23    107       24.50          0.1815E+06
   3936      1     23    108       23.00          0.1815E+06
   3937      1     23    109       19.40          0.1815E+06
   3938      1     23    110       12.17          0.1815E+06
   3939      1     23    111       7.380          0.1815E+06
   3940      1     23    112       6.590          0.1815E+06
   3941      1     23    113       6.570          0.1815E+06
   3942      1     23    114       6.440          0.1815E+06
   3943      1     23    115       6.400          0.1815E+06
   3944      1     23    116       6.380          0.1815E+06
   3945      1     23    117       6.340          0.1815E+06
   3946      1     23    118       6.260          0.1815E+06
   3947      1     23    119       6.340          0.1815E+06
   3948      1     23    120       8.090          0.1815E+06
   3949      1     23    121       12.32          0.1815E+06
   3950      1     23    122       10.57          0.1815E+06
   3951      1     23    123       22.50          0.1815E+06
   3952      1     23    124       29.00          0.1815E+06
   3953      1     23    125       28.30          0.1815E+06
   3954      1     23    126       24.70          0.1815E+06
   3955      1     23    127       24.90          0.1815E+06
   3956      1     23    128       20.10          0.1815E+06
   3957      1     23    129       19.90          0.1815E+06
   3958      1     23    130       25.50          0.1815E+06
   3959      1     23    131       31.20          0.1815E+06
   3960      1     23    132       32.40          0.1815E+06
   3961      1     23    133       36.20          0.1815E+06
   3962      1     23    134       38.30          0.1815E+06
   3963      1     23    135       39.50          0.1815E+06
   3964      1     23    136       40.60          0.1815E+06
   3965      1     23    137       44.40          0.1815E+06
   3966      1     23    138       48.60          0.1815E+06
   3967      1     23    139       55.40          0.1815E+06
   3968      1     23    140       62.70          0.1815E+06
   3969      1     23    141       70.80          0.1815E+06
   3970      1     23    142       79.40          0.1815E+06
   3971      1     23    143       94.60          0.1815E+06
   3972      1     23    144       102.0          0.1815E+06
   3973      1     23    145       105.1          0.1815E+06
   3974      1     23    146       108.6          0.1815E+06
   3975      1     23    147       113.8          0.1815E+06
   3976      1     23    148       118.3          0.1815E+06
   3977      1     23    149       125.8          0.1815E+06
   3978      1     23    150       122.7          0.1815E+06
   3979      1     23    151       127.0          0.1815E+06
   3980      1     23    152       127.1          0.1815E+06
   3981      1     23    153       121.6          0.1815E+06
   3982      1     23    154       112.2          0.1815E+06
   3983      1     23    155       90.50          0.1815E+06
   3984      1     23    156       81.90          0.1815E+06
   3985      1     23    157       71.30          0.1815E+06
   3986      1     23    158       62.00          0.1815E+06
   3987      1     23    159       53.10          0.1815E+06
   3988      1     23    160       45.90          0.1815E+06
   3989      1     23    161       38.30          0.1815E+06
   3990      1     23    162       33.60          0.1815E+06
   3991      1     23    163       34.10          0.1815E+06
   3992      1     23    164       35.10          0.1815E+06
   3993      1     23    165       30.90          0.1815E+06
   3994      1     23    166       31.20          0.1815E+06
   3995      1     23    167       31.40          0.1815E+06
   3996      1     23    168       29.80          0.1815E+06
   3997      1     23    169       27.60          0.1815E+06
   3998      1     23    170       23.70          0.1815E+06
   3999      1     23    171       23.90          0.1815E+06
   4000      1     23    172       24.80          0.1815E+06
   4001      1     23    173       22.60          0.1815E+06
   4002      1     23    174       20.50          0.1815E+06
   4003      1     24      1       1.540          0.1815E+06
   4004      1     24      2       1.930          0.1815E+06
   4005      1     24      3       1.930          0.1815E+06
   4006      1     24      4       1.730          0.1815E+06
   4007      1     24      5      0.4000          0.1815E+06
   4008      1     24      6      0.9300          0.1815E+06
   4009      1     24      7       1.230          0.1815E+06
   4010      1     24      8       2.410          0.1815E+06
   4011      1     24      9       2.410          0.1815E+06
   4012      1     24     10       3.410          0.1815E+06
   4013      1     24     11       5.420          0.1815E+06
   4014      1     24     12       6.690          0.1815E+06
   4015      1     24     13       7.320          0.1815E+06
   4016      1     24     14       15.97          0.1815E+06
   4017      1     24     15       8.820          0.1815E+06
   4018      1     24     16       6.820          0.1815E+06
   4019      1     24     17       6.360          0.1815E+06
   4020      1     24     18       6.480          0.1815E+06
   4021      1     24     19       16.43          0.1815E+06
   4022      1     24     20       11.60          0.1815E+06
   4023      1     24     21       10.97          0.1815E+06
   4024      1     24     22       11.60          0.1815E+06
   4025      1     24     23       11.17          0.1815E+06
   4026      1     24     24       11.34          0.1815E+06
   4027      1     24     25       10.90          0.1815E+06
   4028      1     24     26       15.85          0.1815E+06
   4029      1     24     27       19.81          0.1815E+06
   4030      1     24     28       13.76          0.1815E+06
   4031      1     24     29       12.47          0.1815E+06
   4032      1     24     30       12.57          0.1815E+06
   4033      1     24     31       12.82          0.1815E+06
   4034      1     24     32       13.38          0.1815E+06
   4035      1     24     33       12.75          0.1815E+06
   4036      1     24     34       14.56          0.1815E+06
   4037      1     24     35       13.75          0.1815E+06
   4038      1     24     36       13.85          0.1815E+06
   4039      1     24     37       14.11          0.1815E+06
   4040      1     24     38       19.00          0.1815E+06
   4041      1     24     39       12.90          0.1815E+06
   4042      1     24     40       12.34          0.1815E+06
   4043      1     24     41       12.72          0.1815E+06
   4044      1     24     42       14.10          0.1815E+06
   4045      1     24     43       15.32          0.1815E+06
   4046      1     24     44       16.64          0.1815E+06
   4047      1     24     45       19.02          0.1815E+06
   4048      1     24     46       20.28          0.1815E+06
   4049      1     24     47       21.56          0.1815E+06
   4050      1     24     48       22.03          0.1815E+06
   4051      1     24     49       23.75          0.1815E+06
   4052      1     24     50       24.26          0.1815E+06
   4053      1     24     51       24.43          0.1815E+06
   4054      1     24     52       25.03          0.1815E+06
   4055      1     24     53       25.46          0.1815E+06
   4056      1     24     54       26.21          0.1815E+06
   4057      1     24     55       26.07          0.1815E+06
   4058      1     24     56       26.28          0.1815E+06
   4059      1     24     57       26.30          0.1815E+06
   4060      1     24     58       26.60          0.1815E+06
   4061      1     24     59       26.70          0.1815E+06
   4062      1     24     60       28.03          0.1815E+06
   4063      1     24     61       28.77          0.1815E+06
   4064      1     24     62       28.22          0.1815E+06
   4065      1     24     63       27.43          0.1815E+06
   4066      1     24     64       25.30          0.1815E+06
   4067      1     24     65       26.02          0.1815E+06
   4068      1     24     66       25.09          0.1815E+06
   4069      1     24     67       24.97          0.1815E+06
   4070      1     24     68       24.57          0.1815E+06
   4071      1     24     69       26.89          0.1815E+06
   4072      1     24     70       29.04          0.1815E+06
   4073      1     24     71       31.00          0.1815E+06
   4074      1     24     72       30.70          0.1815E+06
   4075      1     24     73       29.90          0.1815E+06
   4076      1     24     74       24.50          0.1815E+06
   4077      1     24     75       21.00          0.1815E+06
   4078      1     24     76       19.20          0.1815E+06
   4079      1     24     77       18.60          0.1815E+06
   4080      1     24     78       17.40          0.1815E+06
   4081      1     24     79       15.00          0.1815E+06
   4082      1     24     80       16.20          0.1815E+06
   4083      1     24     81       16.60          0.1815E+06
   4084      1     24     82       15.50          0.1815E+06
   4085      1     24     83       13.60          0.1815E+06
   4086      1     24     84       10.90          0.1815E+06
   4087      1     24     85       10.52          0.1815E+06
   4088      1     24     86       12.90          0.1815E+06
   4089      1     24     87       15.50          0.1815E+06
   4090      1     24     88       15.10          0.1815E+06
   4091      1     24     89       14.20          0.1815E+06
   4092      1     24     90       11.65          0.1815E+06
   4093      1     24     91       9.300          0.1815E+06
   4094      1     24     92       9.130          0.1815E+06
   4095      1     24     93       11.39          0.1815E+06
   4096      1     24     94       8.850          0.1815E+06
   4097      1     24     95       8.960          0.1815E+06
   4098      1     24     96       8.930          0.1815E+06
   4099      1     24     97       8.770          0.1815E+06
   4100      1     24     98       8.550          0.1815E+06
   4101      1     24     99       8.640          0.1815E+06
   4102      1     24    100       8.720          0.1815E+06
   4103      1     24    101       9.180          0.1815E+06
   4104      1     24    102       8.720          0.1815E+06
   4105      1     24    103       10.36          0.1815E+06
   4106      1     24    104       14.70          0.1815E+06
   4107      1     24    105       18.40          0.1815E+06
   4108      1     24    106       20.00          0.1815E+06
   4109      1     24    107       21.10          0.1815E+06
   4110      1     24    108       19.10          0.1815E+06
   4111      1     24    109       16.40          0.1815E+06
   4112      1     24    110       10.75          0.1815E+06
   4113      1     24    111       6.800          0.1815E+06
   4114      1     24    112       6.050          0.1815E+06
   4115      1     24    113       6.530          0.1815E+06
   4116      1     24    114       6.550          0.1815E+06
   4117      1     24    115       6.420          0.1815E+06
   4118      1     24    116       6.360          0.1815E+06
   4119      1     24    117       6.320          0.1815E+06
   4120      1     24    118       6.460          0.1815E+06
   4121      1     24    119       6.480          0.1815E+06
   4122      1     24    120       8.800          0.1815E+06
   4123      1     24    121       13.39          0.1815E+06
   4124      1     24    122       17.80          0.1815E+06
   4125      1     24    123       25.20          0.1815E+06
   4126      1     24    124       31.80          0.1815E+06
   4127      1     24    125       34.60          0.1815E+06
   4128      1     24    126       33.30          0.1815E+06
   4129      1     24    127       30.60          0.1815E+06
   4130      1     24    128       25.30          0.1815E+06
   4131      1     24    129       21.70          0.1815E+06
   4132      1     24    130       26.30          0.1815E+06
   4133      1     24    131       30.20          0.1815E+06
   4134      1     24    132       33.40          0.1815E+06
   4135      1     24    133       37.50          0.1815E+06
   4136      1     24    134       38.70          0.1815E+06
   4137      1     24    135       40.40          0.1815E+06
   4138      1     24    136       40.40          0.1815E+06
   4139      1     24    137       44.70          0.1815E+06
   4140      1     24    138       49.60          0.1815E+06
   4141      1     24    139       55.90          0.1815E+06
   4142      1     24    140       63.10          0.1815E+06
   4143      1     24    141       71.30          0.1815E+06
   4144      1     24    142       82.90          0.1815E+06
   4145      1     24    143       100.6          0.1815E+06
   4146      1     24    144       105.9          0.1815E+06
   4147      1     24    145       107.4          0.1815E+06
   4148      1     24    146       110.0          0.1815E+06
   4149      1     24    147       114.9          0.1815E+06
   4150      1     24    148       119.0          0.1815E+06
   4151      1     24    149       123.0          0.1815E+06
   4152      1     24    150       125.2          0.1815E+06
   4153      1     24    151       127.7          0.1815E+06
   4154      1     24    152       127.6          0.1815E+06
   4155      1     24    153       123.8          0.1815E+06
   4156      1     24    154       114.6          0.1815E+06
   4157      1     24    155       93.40          0.1815E+06
   4158      1     24    156       83.10          0.1815E+06
   4159      1     24    157       72.60          0.1815E+06
   4160      1     24    158       62.60          0.1815E+06
   4161      1     24    159       53.50          0.1815E+06
   4162      1     24    160       45.60          0.1815E+06
   4163      1     24    161       38.70          0.1815E+06
   4164      1     24    162       34.10          0.1815E+06
   4165      1     24    163       36.10          0.1815E+06
   4166      1     24    164       36.20          0.1815E+06
   4167      1     24    165       33.90          0.1815E+06
   4168      1     24    166       34.70          0.1815E+06
   4169      1     24    167       34.40          0.1815E+06
   4170      1     24    168       32.80          0.1815E+06
   4171      1     24    169       30.30          0.1815E+06
   4172      1     24    170       26.50          0.1815E+06
   4173      1     24    171       24.00          0.1815E+06
   4174      1     24    172       20.40          0.1815E+06
   4175      1     24    173       20.00          0.1815E+06
   4176      1     24    174       18.90          0.1815E+06
   4177      1     25      1       1.540          0.1815E+06
   4178      1     25      2       1.930          0.1815E+06
   4179      1     25      3       1.930          0.1815E+06
   4180      1     25      4       1.730          0.1815E+06
   4181      1     25      5      0.4000          0.1815E+06
   4182      1     25      6      0.9300          0.1815E+06
   4183      1     25      7       1.230          0.1815E+06
   4184      1     25      8       2.410          0.1815E+06
   4185      1     25      9       2.410          0.1815E+06
   4186      1     25     10       3.410          0.1815E+06
   4187      1     25     11       5.420          0.1815E+06
   4188      1     25     12       6.980          0.1815E+06
   4189      1     25     13       13.97          0.1815E+06
   4190      1     25     14       15.36          0.1815E+06
   4191      1     25     15       9.210          0.1815E+06
   4192      1     25     16       9.560          0.1815E+06
   4193      1     25     17       7.150          0.1815E+06
   4194      1     25     18       8.840          0.1815E+06
   4195      1     25     19       6.920          0.1815E+06
   4196      1     25     20       11.60          0.1815E+06
   4197      1     25     21       17.52          0.1815E+06
   4198      1     25     22       12.07          0.1815E+06
   4199      1     25     23       10.67          0.1815E+06
   4200      1     25     24       10.68          0.1815E+06
   4201      1     25     25       11.15          0.1815E+06
   4202      1     25     26       11.26          0.1815E+06
   4203      1     25     27       24.75          0.1815E+06
   4204      1     25     28       13.86          0.1815E+06
   4205      1     25     29       12.94          0.1815E+06
   4206      1     25     30       12.77          0.1815E+06
   4207      1     25     31       13.36          0.1815E+06
   4208      1     25     32       13.30          0.1815E+06
   4209      1     25     33       13.59          0.1815E+06
   4210      1     25     34       13.84          0.1815E+06
   4211      1     25     35       13.60          0.1815E+06
   4212      1     25     36       17.26          0.1815E+06
   4213      1     25     37       15.80          0.1815E+06
   4214      1     25     38       13.98          0.1815E+06
   4215      1     25     39       13.82          0.1815E+06
   4216      1     25     40       12.47          0.1815E+06
   4217      1     25     41       13.27          0.1815E+06
   4218      1     25     42       13.51          0.1815E+06
   4219      1     25     43       14.89          0.1815E+06
   4220      1     25     44       16.07          0.1815E+06
   4221      1     25     45       17.86          0.1815E+06
   4222      1     25     46       19.89          0.1815E+06
   4223      1     25     47       21.21          0.1815E+06
   4224      1     25     48       22.89          0.1815E+06
   4225      1     25     49       23.65          0.1815E+06
   4226      1     25     50       23.88          0.1815E+06
   4227      1     25     51       24.17          0.1815E+06
   4228      1     25     52       24.37          0.1815E+06
   4229      1     25     53       25.18          0.1815E+06
   4230      1     25     54       26.19          0.1815E+06
   4231      1     25     55       26.65          0.1815E+06
   4232      1     25     56       26.20          0.1815E+06
   4233      1     25     57       25.39          0.1815E+06
   4234      1     25     58       25.04          0.1815E+06
   4235      1     25     59       24.89          0.1815E+06
   4236      1     25     60       26.02          0.1815E+06
   4237      1     25     61       26.59          0.1815E+06
   4238      1     25     62       26.12          0.1815E+06
   4239      1     25     63       24.64          0.1815E+06
   4240      1     25     64       21.17          0.1815E+06
   4241      1     25     65       23.12          0.1815E+06
   4242      1     25     66       21.93          0.1815E+06
   4243      1     25     67       20.57          0.1815E+06
   4244      1     25     68       23.64          0.1815E+06
   4245      1     25     69       27.04          0.1815E+06
   4246      1     25     70       28.01          0.1815E+06
   4247      1     25     71       28.90          0.1815E+06
   4248      1     25     72       27.70          0.1815E+06
   4249      1     25     73       24.50          0.1815E+06
   4250      1     25     74       20.70          0.1815E+06
   4251      1     25     75       18.50          0.1815E+06
   4252      1     25     76       17.80          0.1815E+06
   4253      1     25     77       17.50          0.1815E+06
   4254      1     25     78       17.30          0.1815E+06
   4255      1     25     79       17.40          0.1815E+06
   4256      1     25     80       17.90          0.1815E+06
   4257      1     25     81       16.00          0.1815E+06
   4258      1     25     82       13.90          0.1815E+06
   4259      1     25     83       11.80          0.1815E+06
   4260      1     25     84       10.56          0.1815E+06
   4261      1     25     85       9.760          0.1815E+06
   4262      1     25     86       10.91          0.1815E+06
   4263      1     25     87       12.60          0.1815E+06
   4264      1     25     88       11.95          0.1815E+06
   4265      1     25     89       10.33          0.1815E+06
   4266      1     25     90       9.060          0.1815E+06
   4267      1     25     91       8.720          0.1815E+06
   4268      1     25     92       8.680          0.1815E+06
   4269      1     25     93       8.220          0.1815E+06
   4270      1     25     94       9.360          0.1815E+06
   4271      1     25     95       8.560          0.1815E+06
   4272      1     25     96       8.770          0.1815E+06
   4273      1     25     97       8.960          0.1815E+06
   4274      1     25     98       8.590          0.1815E+06
   4275      1     25     99       8.520          0.1815E+06
   4276      1     25    100       8.320          0.1815E+06
   4277      1     25    101       8.380          0.1815E+06
   4278      1     25    102       8.140          0.1815E+06
   4279      1     25    103       9.560          0.1815E+06
   4280      1     25    104       11.25          0.1815E+06
   4281      1     25    105       13.36          0.1815E+06
   4282      1     25    106       13.90          0.1815E+06
   4283      1     25    107       15.28          0.1815E+06
   4284      1     25    108       13.57          0.1815E+06
   4285      1     25    109       11.81          0.1815E+06
   4286      1     25    110       9.670          0.1815E+06
   4287      1     25    111       6.940          0.1815E+06
   4288      1     25    112       6.670          0.1815E+06
   4289      1     25    113       6.570          0.1815E+06
   4290      1     25    114       6.510          0.1815E+06
   4291      1     25    115       6.460          0.1815E+06
   4292      1     25    116       6.440          0.1815E+06
   4293      1     25    117       6.530          0.1815E+06
   4294      1     25    118       6.440          0.1815E+06
   4295      1     25    119       6.510          0.1815E+06
   4296      1     25    120       8.070          0.1815E+06
   4297      1     25    121       10.92          0.1815E+06
   4298      1     25    122       20.10          0.1815E+06
   4299      1     25    123       28.00          0.1815E+06
   4300      1     25    124       33.60          0.1815E+06
   4301      1     25    125       35.00          0.1815E+06
   4302      1     25    126       35.00          0.1815E+06
   4303      1     25    127       33.40          0.1815E+06
   4304      1     25    128       29.70          0.1815E+06
   4305      1     25    129       29.20          0.1815E+06
   4306      1     25    130       27.40          0.1815E+06
   4307      1     25    131       30.40          0.1815E+06
   4308      1     25    132       34.70          0.1815E+06
   4309      1     25    133       37.30          0.1815E+06
   4310      1     25    134       38.80          0.1815E+06
   4311      1     25    135       40.10          0.1815E+06
   4312      1     25    136       41.20          0.1815E+06
   4313      1     25    137       44.10          0.1815E+06
   4314      1     25    138       49.50          0.1815E+06
   4315      1     25    139       55.80          0.1815E+06
   4316      1     25    140       63.20          0.1815E+06
   4317      1     25    141       71.70          0.1815E+06
   4318      1     25    142       82.90          0.1815E+06
   4319      1     25    143       102.6          0.1815E+06
   4320      1     25    144       107.7          0.1815E+06
   4321      1     25    145       107.3          0.1815E+06
   4322      1     25    146       108.8          0.1815E+06
   4323      1     25    147       113.1          0.1815E+06
   4324      1     25    148       117.5          0.1815E+06
   4325      1     25    149       121.4          0.1815E+06
   4326      1     25    150       123.7          0.1815E+06
   4327      1     25    151       125.9          0.1815E+06
   4328      1     25    152       126.4          0.1815E+06
   4329      1     25    153       124.8          0.1815E+06
   4330      1     25    154       117.3          0.1815E+06
   4331      1     25    155       99.30          0.1815E+06
   4332      1     25    156       83.00          0.1815E+06
   4333      1     25    157       74.10          0.1815E+06
   4334      1     25    158       64.90          0.1815E+06
   4335      1     25    159       55.40          0.1815E+06
   4336      1     25    160       47.80          0.1815E+06
   4337      1     25    161       40.90          0.1815E+06
   4338      1     25    162       36.00          0.1815E+06
   4339      1     25    163       35.50          0.1815E+06
   4340      1     25    164       37.40          0.1815E+06
   4341      1     25    165       37.50          0.1815E+06
   4342      1     25    166       37.80          0.1815E+06
   4343      1     25    167       36.80          0.1815E+06
   4344      1     25    168       33.90          0.1815E+06
   4345      1     25    169       31.50          0.1815E+06
   4346      1     25    170       28.00          0.1815E+06
   4347      1     25    171       25.20          0.1815E+06
   4348      1     25    172       21.40          0.1815E+06
   4349      1     25    173       18.90          0.1815E+06
   4350      1     25    174       17.60          0.1815E+06
   4351      1     26      1       1.730          0.1815E+06
   4352      1     26      2       1.480          0.1815E+06
   4353      1     26      3       1.480          0.1815E+06
   4354      1     26      4       1.330          0.1815E+06
   4355      1     26      5     -0.2700          0.1815E+06
   4356      1     26      6      0.7300          0.1815E+06
   4357      1     26      7       1.410          0.1815E+06
   4358      1     26      8       3.410          0.1815E+06
   4359      1     26      9       3.410          0.1815E+06
   4360      1     26     10       3.120          0.1815E+06
   4361      1     26     11       5.410          0.1815E+06
   4362      1     26     12       7.110          0.1815E+06
   4363      1     26     13       10.56          0.1815E+06
   4364      1     26     14       8.750          0.1815E+06
   4365      1     26     15       14.93          0.1815E+06
   4366      1     26     16       9.030          0.1815E+06
   4367      1     26     17       7.110          0.1815E+06
   4368      1     26     18       7.630          0.1815E+06
   4369      1     26     19       10.42          0.1815E+06
   4370      1     26     20       8.500          0.1815E+06
   4371      1     26     21       16.13          0.1815E+06
   4372      1     26     22       11.85          0.1815E+06
   4373      1     26     23       10.34          0.1815E+06
   4374      1     26     24       10.67          0.1815E+06
   4375      1     26     25       13.22          0.1815E+06
   4376      1     26     26       15.43          0.1815E+06
   4377      1     26     27       20.27          0.1815E+06
   4378      1     26     28       13.32          0.1815E+06
   4379      1     26     29       12.47          0.1815E+06
   4380      1     26     30       12.67          0.1815E+06
   4381      1     26     31       12.84          0.1815E+06
   4382      1     26     32       15.56          0.1815E+06
   4383      1     26     33       15.27          0.1815E+06
   4384      1     26     34       14.57          0.1815E+06
   4385      1     26     35       14.43          0.1815E+06
   4386      1     26     36       17.04          0.1815E+06
   4387      1     26     37       15.52          0.1815E+06
   4388      1     26     38       14.80          0.1815E+06
   4389      1     26     39       14.56          0.1815E+06
   4390      1     26     40       15.80          0.1815E+06
   4391      1     26     41       14.44          0.1815E+06
   4392      1     26     42       14.35          0.1815E+06
   4393      1     26     43       14.46          0.1815E+06
   4394      1     26     44       15.72          0.1815E+06
   4395      1     26     45       17.21          0.1815E+06
   4396      1     26     46       18.70          0.1815E+06
   4397      1     26     47       19.89          0.1815E+06
   4398      1     26     48       21.55          0.1815E+06
   4399      1     26     49       22.79          0.1815E+06
   4400      1     26     50       23.47          0.1815E+06
   4401      1     26     51       24.04          0.1815E+06
   4402      1     26     52       24.57          0.1815E+06
   4403      1     26     53       24.68          0.1815E+06
   4404      1     26     54       25.37          0.1815E+06
   4405      1     26     55       26.09          0.1815E+06
   4406      1     26     56       26.36          0.1815E+06
   4407      1     26     57       25.02          0.1815E+06
   4408      1     26     58       23.95          0.1815E+06
   4409      1     26     59       23.06          0.1815E+06
   4410      1     26     60       22.68          0.1815E+06
   4411      1     26     61       23.17          0.1815E+06
   4412      1     26     62       23.38          0.1815E+06
   4413      1     26     63       22.30          0.1815E+06
   4414      1     26     64       20.62          0.1815E+06
   4415      1     26     65       19.20          0.1815E+06
   4416      1     26     66       19.25          0.1815E+06
   4417      1     26     67       21.43          0.1815E+06
   4418      1     26     68       24.04          0.1815E+06
   4419      1     26     69       24.72          0.1815E+06
   4420      1     26     70       24.00          0.1815E+06
   4421      1     26     71       23.70          0.1815E+06
   4422      1     26     72       22.00          0.1815E+06
   4423      1     26     73       19.80          0.1815E+06
   4424      1     26     74       18.80          0.1815E+06
   4425      1     26     75       18.30          0.1815E+06
   4426      1     26     76       17.90          0.1815E+06
   4427      1     26     77       17.80          0.1815E+06
   4428      1     26     78       17.80          0.1815E+06
   4429      1     26     79       17.60          0.1815E+06
   4430      1     26     80       17.50          0.1815E+06
   4431      1     26     81       16.40          0.1815E+06
   4432      1     26     82       14.20          0.1815E+06
   4433      1     26     83       11.10          0.1815E+06
   4434      1     26     84       10.37          0.1815E+06
   4435      1     26     85       9.520          0.1815E+06
   4436      1     26     86       9.400          0.1815E+06
   4437      1     26     87       9.510          0.1815E+06
   4438      1     26     88       8.560          0.1815E+06
   4439      1     26     89       8.750          0.1815E+06
   4440      1     26     90       8.560          0.1815E+06
   4441      1     26     91       8.600          0.1815E+06
   4442      1     26     92       9.530          0.1815E+06
   4443      1     26     93       12.00          0.1815E+06
   4444      1     26     94       13.30          0.1815E+06
   4445      1     26     95       12.35          0.1815E+06
   4446      1     26     96       10.43          0.1815E+06
   4447      1     26     97       10.16          0.1815E+06
   4448      1     26     98       8.810          0.1815E+06
   4449      1     26     99       8.900          0.1815E+06
   4450      1     26    100       8.250          0.1815E+06
   4451      1     26    101       8.180          0.1815E+06
   4452      1     26    102       8.090          0.1815E+06
   4453      1     26    103       7.880          0.1815E+06
   4454      1     26    104       8.630          0.1815E+06
   4455      1     26    105       8.930          0.1815E+06
   4456      1     26    106       8.890          0.1815E+06
   4457      1     26    107       7.800          0.1815E+06
   4458      1     26    108       8.140          0.1815E+06
   4459      1     26    109       9.280          0.1815E+06
   4460      1     26    110       7.630          0.1815E+06
   4461      1     26    111       7.210          0.1815E+06
   4462      1     26    112       6.800          0.1815E+06
   4463      1     26    113       6.710          0.1815E+06
   4464      1     26    114       6.590          0.1815E+06
   4465      1     26    115       6.610          0.1815E+06
   4466      1     26    116       6.880          0.1815E+06
   4467      1     26    117       6.820          0.1815E+06
   4468      1     26    118       6.670          0.1815E+06
   4469      1     26    119       6.860          0.1815E+06
   4470      1     26    120       8.220          0.1815E+06
   4471      1     26    121       13.96          0.1815E+06
   4472      1     26    122       20.40          0.1815E+06
   4473      1     26    123       27.20          0.1815E+06
   4474      1     26    124       31.60          0.1815E+06
   4475      1     26    125       33.10          0.1815E+06
   4476      1     26    126       34.60          0.1815E+06
   4477      1     26    127       30.20          0.1815E+06
   4478      1     26    128       32.50          0.1815E+06
   4479      1     26    129       32.60          0.1815E+06
   4480      1     26    130       30.10          0.1815E+06
   4481      1     26    131       30.10          0.1815E+06
   4482      1     26    132       35.60          0.1815E+06
   4483      1     26    133       37.50          0.1815E+06
   4484      1     26    134       38.60          0.1815E+06
   4485      1     26    135       39.50          0.1815E+06
   4486      1     26    136       41.70          0.1815E+06
   4487      1     26    137       44.30          0.1815E+06
   4488      1     26    138       49.00          0.1815E+06
   4489      1     26    139       55.40          0.1815E+06
   4490      1     26    140       61.70          0.1815E+06
   4491      1     26    141       69.60          0.1815E+06
   4492      1     26    142       80.50          0.1815E+06
   4493      1     26    143       96.20          0.1815E+06
   4494      1     26    144       104.3          0.1815E+06
   4495      1     26    145       105.9          0.1815E+06
   4496      1     26    146       104.6          0.1815E+06
   4497      1     26    147       108.9          0.1815E+06
   4498      1     26    148       114.4          0.1815E+06
   4499      1     26    149       119.5          0.1815E+06
   4500      1     26    150       122.7          0.1815E+06
   4501      1     26    151       124.6          0.1815E+06
   4502      1     26    152       126.0          0.1815E+06
   4503      1     26    153       124.7          0.1815E+06
   4504      1     26    154       118.9          0.1815E+06
   4505      1     26    155       106.0          0.1815E+06
   4506      1     26    156       85.80          0.1815E+06
   4507      1     26    157       76.60          0.1815E+06
   4508      1     26    158       67.40          0.1815E+06
   4509      1     26    159       57.60          0.1815E+06
   4510      1     26    160       50.10          0.1815E+06
   4511      1     26    161       43.40          0.1815E+06
   4512      1     26    162       38.70          0.1815E+06
   4513      1     26    163       36.50          0.1815E+06
   4514      1     26    164       38.00          0.1815E+06
   4515      1     26    165       38.90          0.1815E+06
   4516      1     26    166       38.70          0.1815E+06
   4517      1     26    167       38.00          0.1815E+06
   4518      1     26    168       35.60          0.1815E+06
   4519      1     26    169       31.80          0.1815E+06
   4520      1     26    170       28.00          0.1815E+06
   4521      1     26    171       24.60          0.1815E+06
   4522      1     26    172       21.20          0.1815E+06
   4523      1     26    173       19.00          0.1815E+06
   4524      1     26    174       17.10          0.1815E+06
   4525      1     27      1       1.020          0.1815E+06
   4526      1     27      2       1.170          0.1815E+06
   4527      1     27      3       1.170          0.1815E+06
   4528      1     27      4      0.9200          0.1815E+06
   4529      1     27      5     -0.5800          0.1815E+06
   4530      1     27      6      0.4000          0.1815E+06
   4531      1     27      7       1.400          0.1815E+06
   4532      1     27      8       1.410          0.1815E+06
   4533      1     27      9       1.410          0.1815E+06
   4534      1     27     10       4.420          0.1815E+06
   4535      1     27     11       5.420          0.1815E+06
   4536      1     27     12       7.320          0.1815E+06
   4537      1     27     13       13.28          0.1815E+06
   4538      1     27     14       5.800          0.1815E+06
   4539      1     27     15       13.17          0.1815E+06
   4540      1     27     16       17.48          0.1815E+06
   4541      1     27     17       8.820          0.1815E+06
   4542      1     27     18       7.960          0.1815E+06
   4543      1     27     19       7.420          0.1815E+06
   4544      1     27     20       16.95          0.1815E+06
   4545      1     27     21       10.35          0.1815E+06
   4546      1     27     22       11.81          0.1815E+06
   4547      1     27     23       16.50          0.1815E+06
   4548      1     27     24       13.77          0.1815E+06
   4549      1     27     25       16.28          0.1815E+06
   4550      1     27     26       12.97          0.1815E+06
   4551      1     27     27       12.22          0.1815E+06
   4552      1     27     28       11.86          0.1815E+06
   4553      1     27     29       15.77          0.1815E+06
   4554      1     27     30       15.35          0.1815E+06
   4555      1     27     31       15.94          0.1815E+06
   4556      1     27     32       13.96          0.1815E+06
   4557      1     27     33       14.80          0.1815E+06
   4558      1     27     34       15.96          0.1815E+06
   4559      1     27     35       16.05          0.1815E+06
   4560      1     27     36       15.51          0.1815E+06
   4561      1     27     37       15.52          0.1815E+06
   4562      1     27     38       15.47          0.1815E+06
   4563      1     27     39       16.30          0.1815E+06
   4564      1     27     40       15.97          0.1815E+06
   4565      1     27     41       15.92          0.1815E+06
   4566      1     27     42       15.40          0.1815E+06
   4567      1     27     43       14.81          0.1815E+06
   4568      1     27     44       15.75          0.1815E+06
   4569      1     27     45       16.69          0.1815E+06
   4570      1     27     46       17.87          0.1815E+06
   4571      1     27     47       18.47          0.1815E+06
   4572      1     27     48       19.90          0.1815E+06
   4573      1     27     49       20.76          0.1815E+06
   4574      1     27     50       23.12          0.1815E+06
   4575      1     27     51       23.78          0.1815E+06
   4576      1     27     52       23.95          0.1815E+06
   4577      1     27     53       24.30          0.1815E+06
   4578      1     27     54       25.23          0.1815E+06
   4579      1     27     55       25.28          0.1815E+06
   4580      1     27     56       25.40          0.1815E+06
   4581      1     27     57       25.57          0.1815E+06
   4582      1     27     58       24.92          0.1815E+06
   4583      1     27     59       22.82          0.1815E+06
   4584      1     27     60       20.45          0.1815E+06
   4585      1     27     61       19.78          0.1815E+06
   4586      1     27     62       19.20          0.1815E+06
   4587      1     27     63       18.26          0.1815E+06
   4588      1     27     64       18.62          0.1815E+06
   4589      1     27     65       19.51          0.1815E+06
   4590      1     27     66       21.45          0.1815E+06
   4591      1     27     67       20.60          0.1815E+06
   4592      1     27     68       20.46          0.1815E+06
   4593      1     27     69       19.43          0.1815E+06
   4594      1     27     70       19.00          0.1815E+06
   4595      1     27     71       19.80          0.1815E+06
   4596      1     27     72       18.90          0.1815E+06
   4597      1     27     73       18.50          0.1815E+06
   4598      1     27     74       18.70          0.1815E+06
   4599      1     27     75       18.80          0.1815E+06
   4600      1     27     76       18.60          0.1815E+06
   4601      1     27     77       18.30          0.1815E+06
   4602      1     27     78       17.70          0.1815E+06
   4603      1     27     79       17.90          0.1815E+06
   4604      1     27     80       17.40          0.1815E+06
   4605      1     27     81       15.50          0.1815E+06
   4606      1     27     82       14.10          0.1815E+06
   4607      1     27     83       12.00          0.1815E+06
   4608      1     27     84       10.73          0.1815E+06
   4609      1     27     85       9.750          0.1815E+06
   4610      1     27     86       9.140          0.1815E+06
   4611      1     27     87       9.000          0.1815E+06
   4612      1     27     88       8.970          0.1815E+06
   4613      1     27     89       8.780          0.1815E+06
   4614      1     27     90       8.720          0.1815E+06
   4615      1     27     91       9.390          0.1815E+06
   4616      1     27     92       14.61          0.1815E+06
   4617      1     27     93       19.50          0.1815E+06
   4618      1     27     94       20.20          0.1815E+06
   4619      1     27     95       17.60          0.1815E+06
   4620      1     27     96       15.10          0.1815E+06
   4621      1     27     97       12.70          0.1815E+06
   4622      1     27     98       9.010          0.1815E+06
   4623      1     27     99       8.750          0.1815E+06
   4624      1     27    100       7.750          0.1815E+06
   4625      1     27    101       8.070          0.1815E+06
   4626      1     27    102       8.050          0.1815E+06
   4627      1     27    103       8.030          0.1815E+06
   4628      1     27    104       7.880          0.1815E+06
   4629      1     27    105       7.760          0.1815E+06
   4630      1     27    106       7.590          0.1815E+06
   4631      1     27    107       7.300          0.1815E+06
   4632      1     27    108       7.280          0.1815E+06
   4633      1     27    109       7.380          0.1815E+06
   4634      1     27    110       7.510          0.1815E+06
   4635      1     27    111       7.190          0.1815E+06
   4636      1     27    112       6.860          0.1815E+06
   4637      1     27    113       6.860          0.1815E+06
   4638      1     27    114       7.250          0.1815E+06
   4639      1     27    115       7.820          0.1815E+06
   4640      1     27    116       7.610          0.1815E+06
   4641      1     27    117       7.130          0.1815E+06
   4642      1     27    118       7.130          0.1815E+06
   4643      1     27    119       7.440          0.1815E+06
   4644      1     27    120       8.590          0.1815E+06
   4645      1     27    121       11.44          0.1815E+06
   4646      1     27    122       19.60          0.1815E+06
   4647      1     27    123       22.90          0.1815E+06
   4648      1     27    124       26.00          0.1815E+06
   4649      1     27    125       28.30          0.1815E+06
   4650      1     27    126       30.90          0.1815E+06
   4651      1     27    127       30.90          0.1815E+06
   4652      1     27    128       34.00          0.1815E+06
   4653      1     27    129       33.60          0.1815E+06
   4654      1     27    130       32.50          0.1815E+06
   4655      1     27    131       31.00          0.1815E+06
   4656      1     27    132       35.00          0.1815E+06
   4657      1     27    133       37.40          0.1815E+06
   4658      1     27    134       38.60          0.1815E+06
   4659      1     27    135       39.90          0.1815E+06
   4660      1     27    136       41.20          0.1815E+06
   4661      1     27    137       43.80          0.1815E+06
   4662      1     27    138       48.00          0.1815E+06
   4663      1     27    139       53.50          0.1815E+06
   4664      1     27    140       59.80          0.1815E+06
   4665      1     27    141       67.20          0.1815E+06
   4666      1     27    142       75.80          0.1815E+06
   4667      1     27    143       86.80          0.1815E+06
   4668      1     27    144       95.50          0.1815E+06
   4669      1     27    145       103.7          0.1815E+06
   4670      1     27    146       98.20          0.1815E+06
   4671      1     27    147       103.8          0.1815E+06
   4672      1     27    148       111.1          0.1815E+06
   4673      1     27    149       117.1          0.1815E+06
   4674      1     27    150       120.8          0.1815E+06
   4675      1     27    151       123.5          0.1815E+06
   4676      1     27    152       125.6          0.1815E+06
   4677      1     27    153       125.2          0.1815E+06
   4678      1     27    154       120.4          0.1815E+06
   4679      1     27    155       108.6          0.1815E+06
   4680      1     27    156       87.80          0.1815E+06
   4681      1     27    157       78.60          0.1815E+06
   4682      1     27    158       69.80          0.1815E+06
   4683      1     27    159       61.00          0.1815E+06
   4684      1     27    160       53.10          0.1815E+06
   4685      1     27    161       47.40          0.1815E+06
   4686      1     27    162       42.80          0.1815E+06
   4687      1     27    163       39.70          0.1815E+06
   4688      1     27    164       39.50          0.1815E+06
   4689      1     27    165       39.00          0.1815E+06
   4690      1     27    166       38.70          0.1815E+06
   4691      1     27    167       38.20          0.1815E+06
   4692      1     27    168       35.90          0.1815E+06
   4693      1     27    169       31.80          0.1815E+06
   4694      1     27    170       28.90          0.1815E+06
   4695      1     27    171       25.50          0.1815E+06
   4696      1     27    172       21.50          0.1815E+06
   4697      1     27    173       19.20          0.1815E+06
   4698      1     27    174       17.30          0.1815E+06
   4699      1     28      1     -0.7800          0.1815E+06
   4700      1     28      2      0.1200          0.1815E+06
   4701      1     28      3      0.1200          0.1815E+06
   4702      1     28      4       1.020          0.1815E+06
   4703      1     28      5     -0.8800          0.1815E+06
   4704      1     28      6      0.4100          0.1815E+06
   4705      1     28      7       1.400          0.1815E+06
   4706      1     28      8       1.410          0.1815E+06
   4707      1     28      9       1.410          0.1815E+06
   4708      1     28     10       4.420          0.1815E+06
   4709      1     28     11       5.420          0.1815E+06
   4710      1     28     12       7.130          0.1815E+06
   4711      1     28     13       11.89          0.1815E+06
   4712      1     28     14       15.06          0.1815E+06
   4713      1     28     15       8.000          0.1815E+06
   4714      1     28     16       17.17          0.1815E+06
   4715      1     28     17       9.220          0.1815E+06
   4716      1     28     18       8.310          0.1815E+06
   4717      1     28     19       11.21          0.1815E+06
   4718      1     28     20       22.75          0.1815E+06
   4719      1     28     21       16.09          0.1815E+06
   4720      1     28     22       12.56          0.1815E+06
   4721      1     28     23       11.64          0.1815E+06
   4722      1     28     24       11.56          0.1815E+06
   4723      1     28     25       12.51          0.1815E+06
   4724      1     28     26       11.86          0.1815E+06
   4725      1     28     27       16.84          0.1815E+06
   4726      1     28     28       15.06          0.1815E+06
   4727      1     28     29       15.32          0.1815E+06
   4728      1     28     30       14.46          0.1815E+06
   4729      1     28     31       15.39          0.1815E+06
   4730      1     28     32       14.32          0.1815E+06
   4731      1     28     33       15.05          0.1815E+06
   4732      1     28     34       14.94          0.1815E+06
   4733      1     28     35       16.04          0.1815E+06
   4734      1     28     36       16.02          0.1815E+06
   4735      1     28     37       16.00          0.1815E+06
   4736      1     28     38       16.03          0.1815E+06
   4737      1     28     39       16.00          0.1815E+06
   4738      1     28     40       15.76          0.1815E+06
   4739      1     28     41       16.45          0.1815E+06
   4740      1     28     42       16.20          0.1815E+06
   4741      1     28     43       15.97          0.1815E+06
   4742      1     28     44       14.90          0.1815E+06
   4743      1     28     45       15.71          0.1815E+06
   4744      1     28     46       16.20          0.1815E+06
   4745      1     28     47       16.98          0.1815E+06
   4746      1     28     48       18.20          0.1815E+06
   4747      1     28     49       20.36          0.1815E+06
   4748      1     28     50       21.37          0.1815E+06
   4749      1     28     51       23.20          0.1815E+06
   4750      1     28     52       23.70          0.1815E+06
   4751      1     28     53       23.34          0.1815E+06
   4752      1     28     54       23.67          0.1815E+06
   4753      1     28     55       24.32          0.1815E+06
   4754      1     28     56       24.57          0.1815E+06
   4755      1     28     57       24.46          0.1815E+06
   4756      1     28     58       23.94          0.1815E+06
   4757      1     28     59       22.68          0.1815E+06
   4758      1     28     60       20.22          0.1815E+06
   4759      1     28     61       17.38          0.1815E+06
   4760      1     28     62       16.81          0.1815E+06
   4761      1     28     63       16.57          0.1815E+06
   4762      1     28     64       16.76          0.1815E+06
   4763      1     28     65       17.43          0.1815E+06
   4764      1     28     66       17.64          0.1815E+06
   4765      1     28     67       17.93          0.1815E+06
   4766      1     28     68       17.70          0.1815E+06
   4767      1     28     69       18.20          0.1815E+06
   4768      1     28     70       18.10          0.1815E+06
   4769      1     28     71       18.30          0.1815E+06
   4770      1     28     72       18.30          0.1815E+06
   4771      1     28     73       18.20          0.1815E+06
   4772      1     28     74       18.40          0.1815E+06
   4773      1     28     75       18.70          0.1815E+06
   4774      1     28     76       18.60          0.1815E+06
   4775      1     28     77       18.60          0.1815E+06
   4776      1     28     78       18.50          0.1815E+06
   4777      1     28     79       18.40          0.1815E+06
   4778      1     28     80       16.60          0.1815E+06
   4779      1     28     81       14.60          0.1815E+06
   4780      1     28     82       14.30          0.1815E+06
   4781      1     28     83       14.50          0.1815E+06
   4782      1     28     84       11.60          0.1815E+06
   4783      1     28     85       10.69          0.1815E+06
   4784      1     28     86       9.810          0.1815E+06
   4785      1     28     87       9.640          0.1815E+06
   4786      1     28     88       9.430          0.1815E+06
   4787      1     28     89       9.360          0.1815E+06
   4788      1     28     90       9.880          0.1815E+06
   4789      1     28     91       14.11          0.1815E+06
   4790      1     28     92       20.50          0.1815E+06
   4791      1     28     93       23.00          0.1815E+06
   4792      1     28     94       22.70          0.1815E+06
   4793      1     28     95       21.20          0.1815E+06
   4794      1     28     96       18.60          0.1815E+06
   4795      1     28     97       15.50          0.1815E+06
   4796      1     28     98       11.74          0.1815E+06
   4797      1     28     99       11.25          0.1815E+06
   4798      1     28    100       9.880          0.1815E+06
   4799      1     28    101       7.670          0.1815E+06
   4800      1     28    102       7.860          0.1815E+06
   4801      1     28    103       7.780          0.1815E+06
   4802      1     28    104       7.570          0.1815E+06
   4803      1     28    105       7.360          0.1815E+06
   4804      1     28    106       7.130          0.1815E+06
   4805      1     28    107       7.360          0.1815E+06
   4806      1     28    108       7.420          0.1815E+06
   4807      1     28    109       7.420          0.1815E+06
   4808      1     28    110       7.340          0.1815E+06
   4809      1     28    111       7.260          0.1815E+06
   4810      1     28    112       6.690          0.1815E+06
   4811      1     28    113       7.460          0.1815E+06
   4812      1     28    114       8.000          0.1815E+06
   4813      1     28    115       8.390          0.1815E+06
   4814      1     28    116       7.670          0.1815E+06
   4815      1     28    117       7.230          0.1815E+06
   4816      1     28    118       7.690          0.1815E+06
   4817      1     28    119       8.210          0.1815E+06
   4818      1     28    120       8.880          0.1815E+06
   4819      1     28    121       12.25          0.1815E+06
   4820      1     28    122       15.70          0.1815E+06
   4821      1     28    123       19.00          0.1815E+06
   4822      1     28    124       20.40          0.1815E+06
   4823      1     28    125       23.90          0.1815E+06
   4824      1     28    126       26.30          0.1815E+06
   4825      1     28    127       30.40          0.1815E+06
   4826      1     28    128       33.70          0.1815E+06
   4827      1     28    129       35.10          0.1815E+06
   4828      1     28    130       34.70          0.1815E+06
   4829      1     28    131       33.20          0.1815E+06
   4830      1     28    132       33.60          0.1815E+06
   4831      1     28    133       36.20          0.1815E+06
   4832      1     28    134       38.20          0.1815E+06
   4833      1     28    135       40.10          0.1815E+06
   4834      1     28    136       41.50          0.1815E+06
   4835      1     28    137       43.50          0.1815E+06
   4836      1     28    138       46.90          0.1815E+06
   4837      1     28    139       51.50          0.1815E+06
   4838      1     28    140       56.90          0.1815E+06
   4839      1     28    141       64.10          0.1815E+06
   4840      1     28    142       70.90          0.1815E+06
   4841      1     28    143       79.40          0.1815E+06
   4842      1     28    144       86.70          0.1815E+06
   4843      1     28    145       94.90          0.1815E+06
   4844      1     28    146       89.20          0.1815E+06
   4845      1     28    147       98.20          0.1815E+06
   4846      1     28    148       106.4          0.1815E+06
   4847      1     28    149       112.9          0.1815E+06
   4848      1     28    150       117.9          0.1815E+06
   4849      1     28    151       120.9          0.1815E+06
   4850      1     28    152       123.9          0.1815E+06
   4851      1     28    153       125.0          0.1815E+06
   4852      1     28    154       121.7          0.1815E+06
   4853      1     28    155       111.4          0.1815E+06
   4854      1     28    156       90.00          0.1815E+06
   4855      1     28    157       79.30          0.1815E+06
   4856      1     28    158       71.30          0.1815E+06
   4857      1     28    159       63.20          0.1815E+06
   4858      1     28    160       55.90          0.1815E+06
   4859      1     28    161       49.80          0.1815E+06
   4860      1     28    162       44.90          0.1815E+06
   4861      1     28    163       41.90          0.1815E+06
   4862      1     28    164       39.90          0.1815E+06
   4863      1     28    165       39.50          0.1815E+06
   4864      1     28    166       38.80          0.1815E+06
   4865      1     28    167       37.50          0.1815E+06
   4866      1     28    168       35.60          0.1815E+06
   4867      1     28    169       35.20          0.1815E+06
   4868      1     28    170       31.50          0.1815E+06
   4869      1     28    171       23.20          0.1815E+06
   4870      1     28    172       19.20          0.1815E+06
   4871      1     28    173       18.00          0.1815E+06
   4872      1     28    174       17.90          0.1815E+06
   4873      1     29      1      -2.780          0.1815E+06
   4874      1     29      2     -0.1900          0.1815E+06
   4875      1     29      3     -0.1900          0.1815E+06
   4876      1     29      4       1.020          0.1815E+06
   4877      1     29      5     -0.8800          0.1815E+06
   4878      1     29      6      0.4100          0.1815E+06
   4879      1     29      7      0.4100          0.1815E+06
   4880      1     29      8       1.410          0.1815E+06
   4881      1     29      9       1.410          0.1815E+06
   4882      1     29     10       3.410          0.1815E+06
   4883      1     29     11       4.910          0.1815E+06
   4884      1     29     12       6.420          0.1815E+06
   4885      1     29     13       8.640          0.1815E+06
   4886      1     29     14       13.85          0.1815E+06
   4887      1     29     15       12.65          0.1815E+06
   4888      1     29     16       9.470          0.1815E+06
   4889      1     29     17       10.03          0.1815E+06
   4890      1     29     18       15.35          0.1815E+06
   4891      1     29     19       7.800          0.1815E+06
   4892      1     29     20       13.25          0.1815E+06
   4893      1     29     21       10.48          0.1815E+06
   4894      1     29     22       10.93          0.1815E+06
   4895      1     29     23       11.39          0.1815E+06
   4896      1     29     24       11.21          0.1815E+06
   4897      1     29     25       14.06          0.1815E+06
   4898      1     29     26       15.32          0.1815E+06
   4899      1     29     27       13.21          0.1815E+06
   4900      1     29     28       13.97          0.1815E+06
   4901      1     29     29       13.68          0.1815E+06
   4902      1     29     30       14.02          0.1815E+06
   4903      1     29     31       14.27          0.1815E+06
   4904      1     29     32       14.68          0.1815E+06
   4905      1     29     33       15.39          0.1815E+06
   4906      1     29     34       14.48          0.1815E+06
   4907      1     29     35       15.86          0.1815E+06
   4908      1     29     36       16.15          0.1815E+06
   4909      1     29     37       16.35          0.1815E+06
   4910      1     29     38       16.62          0.1815E+06
   4911      1     29     39       17.39          0.1815E+06
   4912      1     29     40       16.98          0.1815E+06
   4913      1     29     41       16.79          0.1815E+06
   4914      1     29     42       16.62          0.1815E+06
   4915      1     29     43       16.15          0.1815E+06
   4916      1     29     44       16.01          0.1815E+06
   4917      1     29     45       15.02          0.1815E+06
   4918      1     29     46       15.52          0.1815E+06
   4919      1     29     47       15.69          0.1815E+06
   4920      1     29     48       16.65          0.1815E+06
   4921      1     29     49       17.68          0.1815E+06
   4922      1     29     50       19.61          0.1815E+06
   4923      1     29     51       21.18          0.1815E+06
   4924      1     29     52       22.56          0.1815E+06
   4925      1     29     53       22.53          0.1815E+06
   4926      1     29     54       22.79          0.1815E+06
   4927      1     29     55       23.57          0.1815E+06
   4928      1     29     56       23.15          0.1815E+06
   4929      1     29     57       22.37          0.1815E+06
   4930      1     29     58       20.23          0.1815E+06
   4931      1     29     59       19.54          0.1815E+06
   4932      1     29     60       18.48          0.1815E+06
   4933      1     29     61       15.94          0.1815E+06
   4934      1     29     62       15.35          0.1815E+06
   4935      1     29     63       15.65          0.1815E+06
   4936      1     29     64       16.37          0.1815E+06
   4937      1     29     65       16.70          0.1815E+06
   4938      1     29     66       16.43          0.1815E+06
   4939      1     29     67       16.77          0.1815E+06
   4940      1     29     68       16.88          0.1815E+06
   4941      1     29     69       17.50          0.1815E+06
   4942      1     29     70       17.60          0.1815E+06
   4943      1     29     71       17.50          0.1815E+06
   4944      1     29     72       17.70          0.1815E+06
   4945      1     29     73       17.70          0.1815E+06
   4946      1     29     74       18.00          0.1815E+06
   4947      1     29     75       17.90          0.1815E+06
   4948      1     29     76       18.50          0.1815E+06
   4949      1     29     77       19.10          0.1815E+06
   4950      1     29     78       19.00          0.1815E+06
   4951      1     29     79       18.50          0.1815E+06
   4952      1     29     80       17.40          0.1815E+06
   4953      1     29     81       14.80          0.1815E+06
   4954      1     29     82       15.80          0.1815E+06
   4955      1     29     83       15.80          0.1815E+06
   4956      1     29     84       16.60          0.1815E+06
   4957      1     29     85       13.70          0.1815E+06
   4958      1     29     86       12.20          0.1815E+06
   4959      1     29     87       13.10          0.1815E+06
   4960      1     29     88       15.20          0.1815E+06
   4961      1     29     89       18.10          0.1815E+06
   4962      1     29     90       16.60          0.1815E+06
   4963      1     29     91       16.00          0.1815E+06
   4964      1     29     92       21.70          0.1815E+06
   4965      1     29     93       24.00          0.1815E+06
   4966      1     29     94       23.50          0.1815E+06
   4967      1     29     95       22.10          0.1815E+06
   4968      1     29     96       20.00          0.1815E+06
   4969      1     29     97       17.90          0.1815E+06
   4970      1     29     98       15.50          0.1815E+06
   4971      1     29     99       15.80          0.1815E+06
   4972      1     29    100       14.00          0.1815E+06
   4973      1     29    101       9.300          0.1815E+06
   4974      1     29    102       7.630          0.1815E+06
   4975      1     29    103       7.280          0.1815E+06
   4976      1     29    104       7.280          0.1815E+06
   4977      1     29    105       7.510          0.1815E+06
   4978      1     29    106       7.610          0.1815E+06
   4979      1     29    107       7.440          0.1815E+06
   4980      1     29    108       7.380          0.1815E+06
   4981      1     29    109       7.360          0.1815E+06
   4982      1     29    110       7.280          0.1815E+06
   4983      1     29    111       7.110          0.1815E+06
   4984      1     29    112       6.730          0.1815E+06
   4985      1     29    113       7.420          0.1815E+06
   4986      1     29    114       8.900          0.1815E+06
   4987      1     29    115       10.10          0.1815E+06
   4988      1     29    116       10.42          0.1815E+06
   4989      1     29    117       10.18          0.1815E+06
   4990      1     29    118       8.820          0.1815E+06
   4991      1     29    119       8.280          0.1815E+06
   4992      1     29    120       11.45          0.1815E+06
   4993      1     29    121       17.10          0.1815E+06
   4994      1     29    122       20.90          0.1815E+06
   4995      1     29    123       23.50          0.1815E+06
   4996      1     29    124       25.60          0.1815E+06
   4997      1     29    125       27.30          0.1815E+06
   4998      1     29    126       25.80          0.1815E+06
   4999      1     29    127       30.40          0.1815E+06
   5000      1     29    128       33.90          0.1815E+06
   5001      1     29    129       35.50          0.1815E+06
   5002      1     29    130       35.30          0.1815E+06
   5003      1     29    131       34.30          0.1815E+06
   5004      1     29    132       33.70          0.1815E+06
   5005      1     29    133       35.30          0.1815E+06
   5006      1     29    134       37.90          0.1815E+06
   5007      1     29    135       39.60          0.1815E+06
   5008      1     29    136       41.10          0.1815E+06
   5009      1     29    137       42.50          0.1815E+06
   5010      1     29    138       45.60          0.1815E+06
   5011      1     29    139       49.70          0.1815E+06
   5012      1     29    140       54.20          0.1815E+06
   5013      1     29    141       59.90          0.1815E+06
   5014      1     29    142       66.50          0.1815E+06
   5015      1     29    143       72.70          0.1815E+06
   5016      1     29    144       77.80          0.1815E+06
   5017      1     29    145       83.90          0.1815E+06
   5018      1     29    146       82.20          0.1815E+06
   5019      1     29    147       91.80          0.1815E+06
   5020      1     29    148       100.8          0.1815E+06
   5021      1     29    149       107.8          0.1815E+06
   5022      1     29    150       114.3          0.1815E+06
   5023      1     29    151       118.0          0.1815E+06
   5024      1     29    152       121.0          0.1815E+06
   5025      1     29    153       122.6          0.1815E+06
   5026      1     29    154       120.8          0.1815E+06
   5027      1     29    155       113.1          0.1815E+06
   5028      1     29    156       96.50          0.1815E+06
   5029      1     29    157       81.90          0.1815E+06
   5030      1     29    158       73.10          0.1815E+06
   5031      1     29    159       65.10          0.1815E+06
   5032      1     29    160       57.50          0.1815E+06
   5033      1     29    161       51.90          0.1815E+06
   5034      1     29    162       47.40          0.1815E+06
   5035      1     29    163       43.50          0.1815E+06
   5036      1     29    164       41.50          0.1815E+06
   5037      1     29    165       40.40          0.1815E+06
   5038      1     29    166       38.60          0.1815E+06
   5039      1     29    167       37.50          0.1815E+06
   5040      1     29    168       35.70          0.1815E+06
   5041      1     29    169       35.20          0.1815E+06
   5042      1     29    170       31.60          0.1815E+06
   5043      1     29    171       20.80          0.1815E+06
   5044      1     29    172       16.70          0.1815E+06
   5045      1     29    173       18.00          0.1815E+06
   5046      1     29    174       19.70          0.1815E+06
   5047      1     30      1      -2.780          0.1815E+06
   5048      1     30      2     -0.1900          0.1815E+06
   5049      1     30      3     -0.1900          0.1815E+06
   5050      1     30      4      0.7100          0.1815E+06
   5051      1     30      5      0.2100          0.1815E+06
   5052      1     30      6     -0.3900          0.1815E+06
   5053      1     30      7      0.4000          0.1815E+06
   5054      1     30      8       1.400          0.1815E+06
   5055      1     30      9       1.400          0.1815E+06
   5056      1     30     10       3.400          0.1815E+06
   5057      1     30     11       4.420          0.1815E+06
   5058      1     30     12       5.410          0.1815E+06
   5059      1     30     13       8.500          0.1815E+06
   5060      1     30     14       11.27          0.1815E+06
   5061      1     30     15       14.31          0.1815E+06
   5062      1     30     16       9.840          0.1815E+06
   5063      1     30     17       15.00          0.1815E+06
   5064      1     30     18       11.80          0.1815E+06
   5065      1     30     19       10.35          0.1815E+06
   5066      1     30     20       9.400          0.1815E+06
   5067      1     30     21       10.65          0.1815E+06
   5068      1     30     22       10.68          0.1815E+06
   5069      1     30     23       11.32          0.1815E+06
   5070      1     30     24       12.27          0.1815E+06
   5071      1     30     25       14.23          0.1815E+06
   5072      1     30     26       13.72          0.1815E+06
   5073      1     30     27       13.86          0.1815E+06
   5074      1     30     28       14.59          0.1815E+06
   5075      1     30     29       13.52          0.1815E+06
   5076      1     30     30       14.34          0.1815E+06
   5077      1     30     31       13.67          0.1815E+06
   5078      1     30     32       14.14          0.1815E+06
   5079      1     30     33       15.14          0.1815E+06
   5080      1     30     34       15.18          0.1815E+06
   5081      1     30     35       15.47          0.1815E+06
   5082      1     30     36       15.89          0.1815E+06
   5083      1     30     37       16.51          0.1815E+06
   5084      1     30     38       16.96          0.1815E+06
   5085      1     30     39       16.95          0.1815E+06
   5086      1     30     40       16.72          0.1815E+06
   5087      1     30     41       17.03          0.1815E+06
   5088      1     30     42       16.96          0.1815E+06
   5089      1     30     43       16.12          0.1815E+06
   5090      1     30     44       16.19          0.1815E+06
   5091      1     30     45       14.96          0.1815E+06
   5092      1     30     46       15.27          0.1815E+06
   5093      1     30     47       15.52          0.1815E+06
   5094      1     30     48       15.85          0.1815E+06
   5095      1     30     49       16.25          0.1815E+06
   5096      1     30     50       17.37          0.1815E+06
   5097      1     30     51       18.79          0.1815E+06
   5098      1     30     52       21.63          0.1815E+06
   5099      1     30     53       20.70          0.1815E+06
   5100      1     30     54       22.09          0.1815E+06
   5101      1     30     55       22.38          0.1815E+06
   5102      1     30     56       22.10          0.1815E+06
   5103      1     30     57       21.70          0.1815E+06
   5104      1     30     58       18.78          0.1815E+06
   5105      1     30     59       16.35          0.1815E+06
   5106      1     30     60       15.93          0.1815E+06
   5107      1     30     61       15.57          0.1815E+06
   5108      1     30     62       15.30          0.1815E+06
   5109      1     30     63       15.46          0.1815E+06
   5110      1     30     64       15.85          0.1815E+06
   5111      1     30     65       15.97          0.1815E+06
   5112      1     30     66       16.37          0.1815E+06
   5113      1     30     67       16.52          0.1815E+06
   5114      1     30     68       16.40          0.1815E+06
   5115      1     30     69       16.60          0.1815E+06
   5116      1     30     70       16.80          0.1815E+06
   5117      1     30     71       17.20          0.1815E+06
   5118      1     30     72       17.60          0.1815E+06
   5119      1     30     73       17.60          0.1815E+06
   5120      1     30     74       17.70          0.1815E+06
   5121      1     30     75       18.00          0.1815E+06
   5122      1     30     76       18.90          0.1815E+06
   5123      1     30     77       19.30          0.1815E+06
   5124      1     30     78       19.00          0.1815E+06
   5125      1     30     79       18.00          0.1815E+06
   5126      1     30     80       17.40          0.1815E+06
   5127      1     30     81       18.40          0.1815E+06
   5128      1     30     82       19.90          0.1815E+06
   5129      1     30     83       19.30          0.1815E+06
   5130      1     30     84       20.80          0.1815E+06
   5131      1     30     85       19.90          0.1815E+06
   5132      1     30     86       17.20          0.1815E+06
   5133      1     30     87       16.40          0.1815E+06
   5134      1     30     88       21.90          0.1815E+06
   5135      1     30     89       23.30          0.1815E+06
   5136      1     30     90       20.90          0.1815E+06
   5137      1     30     91       19.60          0.1815E+06
   5138      1     30     92       22.20          0.1815E+06
   5139      1     30     93       23.60          0.1815E+06
   5140      1     30     94       23.60          0.1815E+06
   5141      1     30     95       22.70          0.1815E+06
   5142      1     30     96       21.20          0.1815E+06
   5143      1     30     97       20.70          0.1815E+06
   5144      1     30     98       20.30          0.1815E+06
   5145      1     30     99       18.60          0.1815E+06
   5146      1     30    100       16.70          0.1815E+06
   5147      1     30    101       10.34          0.1815E+06
   5148      1     30    102       9.590          0.1815E+06
   5149      1     30    103       7.550          0.1815E+06
   5150      1     30    104       7.860          0.1815E+06
   5151      1     30    105       7.170          0.1815E+06
   5152      1     30    106       7.400          0.1815E+06
   5153      1     30    107       7.420          0.1815E+06
   5154      1     30    108       7.440          0.1815E+06
   5155      1     30    109       7.420          0.1815E+06
   5156      1     30    110       7.480          0.1815E+06
   5157      1     30    111       7.280          0.1815E+06
   5158      1     30    112       7.010          0.1815E+06
   5159      1     30    113       7.070          0.1815E+06
   5160      1     30    114       8.930          0.1815E+06
   5161      1     30    115       11.56          0.1815E+06
   5162      1     30    116       9.050          0.1815E+06
   5163      1     30    117       12.93          0.1815E+06
   5164      1     30    118       10.79          0.1815E+06
   5165      1     30    119       9.350          0.1815E+06
   5166      1     30    120       16.30          0.1815E+06
   5167      1     30    121       21.20          0.1815E+06
   5168      1     30    122       24.40          0.1815E+06
   5169      1     30    123       27.40          0.1815E+06
   5170      1     30    124       28.90          0.1815E+06
   5171      1     30    125       30.30          0.1815E+06
   5172      1     30    126       29.80          0.1815E+06
   5173      1     30    127       29.60          0.1815E+06
   5174      1     30    128       33.40          0.1815E+06
   5175      1     30    129       35.70          0.1815E+06
   5176      1     30    130       36.50          0.1815E+06
   5177      1     30    131       35.80          0.1815E+06
   5178      1     30    132       35.10          0.1815E+06
   5179      1     30    133       36.50          0.1815E+06
   5180      1     30    134       37.50          0.1815E+06
   5181      1     30    135       38.70          0.1815E+06
   5182      1     30    136       40.20          0.1815E+06
   5183      1     30    137       41.70          0.1815E+06
   5184      1     30    138       43.70          0.1815E+06
   5185      1     30    139       47.50          0.1815E+06
   5186      1     30    140       51.70          0.1815E+06
   5187      1     30    141       56.30          0.1815E+06
   5188      1     30    142       61.50          0.1815E+06
   5189      1     30    143       66.60          0.1815E+06
   5190      1     30    144       70.40          0.1815E+06
   5191      1     30    145       71.40          0.1815E+06
   5192      1     30    146       76.50          0.1815E+06
   5193      1     30    147       84.20          0.1815E+06
   5194      1     30    148       93.70          0.1815E+06
   5195      1     30    149       102.5          0.1815E+06
   5196      1     30    150       109.4          0.1815E+06
   5197      1     30    151       114.2          0.1815E+06
   5198      1     30    152       117.1          0.1815E+06
   5199      1     30    153       119.3          0.1815E+06
   5200      1     30    154       119.6          0.1815E+06
   5201      1     30    155       113.3          0.1815E+06
   5202      1     30    156       101.9          0.1815E+06
   5203      1     30    157       86.80          0.1815E+06
   5204      1     30    158       73.30          0.1815E+06
   5205      1     30    159       65.80          0.1815E+06
   5206      1     30    160       58.10          0.1815E+06
   5207      1     30    161       53.50          0.1815E+06
   5208      1     30    162       49.10          0.1815E+06
   5209      1     30    163       45.30          0.1815E+06
   5210      1     30    164       42.30          0.1815E+06
   5211      1     30    165       39.60          0.1815E+06
   5212      1     30    166       37.10          0.1815E+06
   5213      1     30    167       35.70          0.1815E+06
   5214      1     30    168       35.10          0.1815E+06
   5215      1     30    169       32.00          0.1815E+06
   5216      1     30    170       24.90          0.1815E+06
   5217      1     30    171       17.70          0.1815E+06
   5218      1     30    172       19.00          0.1815E+06
   5219      1     30    173       21.30          0.1815E+06
   5220      1     30    174       23.60          0.1815E+06
   5221      1     31      1      -2.780          0.1815E+06
   5222      1     31      2     -0.1900          0.1815E+06
   5223      1     31      3     -0.1900          0.1815E+06
   5224      1     31      4      0.7100          0.1815E+06
   5225      1     31      5      0.2100          0.1815E+06
   5226      1     31      6     -0.3900          0.1815E+06
   5227      1     31      7      0.4000          0.1815E+06
   5228      1     31      8       1.400          0.1815E+06
   5229      1     31      9       1.400          0.1815E+06
   5230      1     31     10       3.400          0.1815E+06
   5231      1     31     11       4.420          0.1815E+06
   5232      1     31     12       5.410          0.1815E+06
   5233      1     31     13       8.020          0.1815E+06
   5234      1     31     14       8.360          0.1815E+06
   5235      1     31     15       13.28          0.1815E+06
   5236      1     31     16       10.13          0.1815E+06
   5237      1     31     17       13.32          0.1815E+06
   5238      1     31     18       11.61          0.1815E+06
   5239      1     31     19       8.840          0.1815E+06
   5240      1     31     20       9.430          0.1815E+06
   5241      1     31     21       10.96          0.1815E+06
   5242      1     31     22       11.02          0.1815E+06
   5243      1     31     23       12.28          0.1815E+06
   5244      1     31     24       12.50          0.1815E+06
   5245      1     31     25       12.80          0.1815E+06
   5246      1     31     26       13.10          0.1815E+06
   5247      1     31     27       13.47          0.1815E+06
   5248      1     31     28       13.67          0.1815E+06
   5249      1     31     29       13.86          0.1815E+06
   5250      1     31     30       14.02          0.1815E+06
   5251      1     31     31       14.18          0.1815E+06
   5252      1     31     32       14.09          0.1815E+06
   5253      1     31     33       15.43          0.1815E+06
   5254      1     31     34       14.85          0.1815E+06
   5255      1     31     35       15.42          0.1815E+06
   5256      1     31     36       15.90          0.1815E+06
   5257      1     31     37       15.60          0.1815E+06
   5258      1     31     38       16.29          0.1815E+06
   5259      1     31     39       16.89          0.1815E+06
   5260      1     31     40       17.03          0.1815E+06
   5261      1     31     41       16.59          0.1815E+06
   5262      1     31     42       17.59          0.1815E+06
   5263      1     31     43       16.61          0.1815E+06
   5264      1     31     44       16.64          0.1815E+06
   5265      1     31     45       15.80          0.1815E+06
   5266      1     31     46       15.18          0.1815E+06
   5267      1     31     47       14.92          0.1815E+06
   5268      1     31     48       15.27          0.1815E+06
   5269      1     31     49       15.52          0.1815E+06
   5270      1     31     50       15.96          0.1815E+06
   5271      1     31     51       16.18          0.1815E+06
   5272      1     31     52       16.29          0.1815E+06
   5273      1     31     53       18.20          0.1815E+06
   5274      1     31     54       19.92          0.1815E+06
   5275      1     31     55       20.79          0.1815E+06
   5276      1     31     56       20.93          0.1815E+06
   5277      1     31     57       20.79          0.1815E+06
   5278      1     31     58       17.45          0.1815E+06
   5279      1     31     59       16.12          0.1815E+06
   5280      1     31     60       15.55          0.1815E+06
   5281      1     31     61       14.98          0.1815E+06
   5282      1     31     62       15.19          0.1815E+06
   5283      1     31     63       15.19          0.1815E+06
   5284      1     31     64       15.93          0.1815E+06
   5285      1     31     65       16.12          0.1815E+06
   5286      1     31     66       15.58          0.1815E+06
   5287      1     31     67       16.10          0.1815E+06
   5288      1     31     68       16.20          0.1815E+06
   5289      1     31     69       16.40          0.1815E+06
   5290      1     31     70       16.60          0.1815E+06
   5291      1     31     71       16.70          0.1815E+06
   5292      1     31     72       16.70          0.1815E+06
   5293      1     31     73       17.40          0.1815E+06
   5294      1     31     74       18.50          0.1815E+06
   5295      1     31     75       19.30          0.1815E+06
   5296      1     31     76       19.80          0.1815E+06
   5297      1     31     77       19.20          0.1815E+06
   5298      1     31     78       18.30          0.1815E+06
   5299      1     31     79       18.10          0.1815E+06
   5300      1     31     80       20.40          0.1815E+06
   5301      1     31     81       21.80          0.1815E+06
   5302      1     31     82       22.70          0.1815E+06
   5303      1     31     83       22.70          0.1815E+06
   5304      1     31     84       22.80          0.1815E+06
   5305      1     31     85       23.70          0.1815E+06
   5306      1     31     86       23.60          0.1815E+06
   5307      1     31     87       22.90          0.1815E+06
   5308      1     31     88       23.40          0.1815E+06
   5309      1     31     89       24.50          0.1815E+06
   5310      1     31     90       23.70          0.1815E+06
   5311      1     31     91       23.90          0.1815E+06
   5312      1     31     92       23.90          0.1815E+06
   5313      1     31     93       23.50          0.1815E+06
   5314      1     31     94       23.50          0.1815E+06
   5315      1     31     95       23.30          0.1815E+06
   5316      1     31     96       23.10          0.1815E+06
   5317      1     31     97       21.80          0.1815E+06
   5318      1     31     98       19.70          0.1815E+06
   5319      1     31     99       16.10          0.1815E+06
   5320      1     31    100       14.90          0.1815E+06
   5321      1     31    101       11.00          0.1815E+06
   5322      1     31    102       9.640          0.1815E+06
   5323      1     31    103       8.680          0.1815E+06
   5324      1     31    104       8.300          0.1815E+06
   5325      1     31    105       8.140          0.1815E+06
   5326      1     31    106       7.670          0.1815E+06
   5327      1     31    107       7.610          0.1815E+06
   5328      1     31    108       6.860          0.1815E+06
   5329      1     31    109       7.420          0.1815E+06
   5330      1     31    110       7.300          0.1815E+06
   5331      1     31    111       7.230          0.1815E+06
   5332      1     31    112       7.670          0.1815E+06
   5333      1     31    113       7.760          0.1815E+06
   5334      1     31    114       9.600          0.1815E+06
   5335      1     31    115       9.520          0.1815E+06
   5336      1     31    116       13.81          0.1815E+06
   5337      1     31    117       14.90          0.1815E+06
   5338      1     31    118       13.37          0.1815E+06
   5339      1     31    119       9.530          0.1815E+06
   5340      1     31    120       16.10          0.1815E+06
   5341      1     31    121       23.30          0.1815E+06
   5342      1     31    122       26.70          0.1815E+06
   5343      1     31    123       29.70          0.1815E+06
   5344      1     31    124       31.10          0.1815E+06
   5345      1     31    125       32.20          0.1815E+06
   5346      1     31    126       32.90          0.1815E+06
   5347      1     31    127       30.70          0.1815E+06
   5348      1     31    128       32.10          0.1815E+06
   5349      1     31    129       35.90          0.1815E+06
   5350      1     31    130       37.40          0.1815E+06
   5351      1     31    131       36.60          0.1815E+06
   5352      1     31    132       36.80          0.1815E+06
   5353      1     31    133       38.30          0.1815E+06
   5354      1     31    134       39.10          0.1815E+06
   5355      1     31    135       40.00          0.1815E+06
   5356      1     31    136       40.70          0.1815E+06
   5357      1     31    137       41.90          0.1815E+06
   5358      1     31    138       43.70          0.1815E+06
   5359      1     31    139       46.20          0.1815E+06
   5360      1     31    140       48.90          0.1815E+06
   5361      1     31    141       52.90          0.1815E+06
   5362      1     31    142       57.40          0.1815E+06
   5363      1     31    143       61.10          0.1815E+06
   5364      1     31    144       62.80          0.1815E+06
   5365      1     31    145       64.80          0.1815E+06
   5366      1     31    146       70.70          0.1815E+06
   5367      1     31    147       78.30          0.1815E+06
   5368      1     31    148       86.90          0.1815E+06
   5369      1     31    149       92.80          0.1815E+06
   5370      1     31    150       101.5          0.1815E+06
   5371      1     31    151       107.7          0.1815E+06
   5372      1     31    152       110.9          0.1815E+06
   5373      1     31    153       112.4          0.1815E+06
   5374      1     31    154       115.7          0.1815E+06
   5375      1     31    155       113.7          0.1815E+06
   5376      1     31    156       104.7          0.1815E+06
   5377      1     31    157       93.10          0.1815E+06
   5378      1     31    158       75.40          0.1815E+06
   5379      1     31    159       65.90          0.1815E+06
   5380      1     31    160       58.70          0.1815E+06
   5381      1     31    161       53.60          0.1815E+06
   5382      1     31    162       48.80          0.1815E+06
   5383      1     31    163       45.40          0.1815E+06
   5384      1     31    164       41.20          0.1815E+06
   5385      1     31    165       37.50          0.1815E+06
   5386      1     31    166       34.20          0.1815E+06
   5387      1     31    167       31.00          0.1815E+06
   5388      1     31    168       30.20          0.1815E+06
   5389      1     31    169       25.30          0.1815E+06
   5390      1     31    170       17.70          0.1815E+06
   5391      1     31    171       19.50          0.1815E+06
   5392      1     31    172       27.10          0.1815E+06
   5393      1     31    173       29.70          0.1815E+06
   5394      1     31    174       29.60          0.1815E+06
   5395      1     32      1      -2.090          0.1815E+06
   5396      1     32      2      -1.360          0.1815E+06
   5397      1     32      3      -1.360          0.1815E+06
   5398      1     32      4      0.6100          0.1815E+06
   5399      1     32      5      0.6100          0.1815E+06
   5400      1     32      6     -0.1900          0.1815E+06
   5401      1     32      7      0.4100          0.1815E+06
   5402      1     32      8      0.4100          0.1815E+06
   5403      1     32      9      0.4100          0.1815E+06
   5404      1     32     10       2.410          0.1815E+06
   5405      1     32     11       3.410          0.1815E+06
   5406      1     32     12       4.410          0.1815E+06
   5407      1     32     13       8.390          0.1815E+06
   5408      1     32     14       8.720          0.1815E+06
   5409      1     32     15       13.26          0.1815E+06
   5410      1     32     16       11.22          0.1815E+06
   5411      1     32     17       11.42          0.1815E+06
   5412      1     32     18       8.030          0.1815E+06
   5413      1     32     19       12.10          0.1815E+06
   5414      1     32     20       9.130          0.1815E+06
   5415      1     32     21       8.810          0.1815E+06
   5416      1     32     22       11.01          0.1815E+06
   5417      1     32     23       11.61          0.1815E+06
   5418      1     32     24       12.67          0.1815E+06
   5419      1     32     25       12.84          0.1815E+06
   5420      1     32     26       13.46          0.1815E+06
   5421      1     32     27       13.47          0.1815E+06
   5422      1     32     28       13.32          0.1815E+06
   5423      1     32     29       13.42          0.1815E+06
   5424      1     32     30       13.92          0.1815E+06
   5425      1     32     31       14.48          0.1815E+06
   5426      1     32     32       14.11          0.1815E+06
   5427      1     32     33       14.61          0.1815E+06
   5428      1     32     34       15.02          0.1815E+06
   5429      1     32     35       16.27          0.1815E+06
   5430      1     32     36       16.06          0.1815E+06
   5431      1     32     37       16.12          0.1815E+06
   5432      1     32     38       16.14          0.1815E+06
   5433      1     32     39       16.38          0.1815E+06
   5434      1     32     40       16.94          0.1815E+06
   5435      1     32     41       17.11          0.1815E+06
   5436      1     32     42       17.36          0.1815E+06
   5437      1     32     43       16.89          0.1815E+06
   5438      1     32     44       17.81          0.1815E+06
   5439      1     32     45       16.01          0.1815E+06
   5440      1     32     46       15.06          0.1815E+06
   5441      1     32     47       14.64          0.1815E+06
   5442      1     32     48       14.72          0.1815E+06
   5443      1     32     49       14.88          0.1815E+06
   5444      1     32     50       14.68          0.1815E+06
   5445      1     32     51       14.57          0.1815E+06
   5446      1     32     52       15.11          0.1815E+06
   5447      1     32     53       16.81          0.1815E+06
   5448      1     32     54       17.61          0.1815E+06
   5449      1     32     55       17.27          0.1815E+06
   5450      1     32     56       16.82          0.1815E+06
   5451      1     32     57       17.87          0.1815E+06
   5452      1     32     58       16.77          0.1815E+06
   5453      1     32     59       15.10          0.1815E+06
   5454      1     32     60       17.28          0.1815E+06
   5455      1     32     61       17.11          0.1815E+06
   5456      1     32     62       16.62          0.1815E+06
   5457      1     32     63       15.38          0.1815E+06
   5458      1     32     64       16.07          0.1815E+06
   5459      1     32     65       15.84          0.1815E+06
   5460      1     32     66       15.70          0.1815E+06
   5461      1     32     67       15.70          0.1815E+06
   5462      1     32     68       16.10          0.1815E+06
   5463      1     32     69       16.50          0.1815E+06
   5464      1     32     70       17.10          0.1815E+06
   5465      1     32     71       17.40          0.1815E+06
   5466      1     32     72       19.50          0.1815E+06
   5467      1     32     73       21.90          0.1815E+06
   5468      1     32     74       21.30          0.1815E+06
   5469      1     32     75       20.60          0.1815E+06
   5470      1     32     76       20.50          0.1815E+06
   5471      1     32     77       19.50          0.1815E+06
   5472      1     32     78       19.50          0.1815E+06
   5473      1     32     79       20.90          0.1815E+06
   5474      1     32     80       22.40          0.1815E+06
   5475      1     32     81       23.60          0.1815E+06
   5476      1     32     82       24.50          0.1815E+06
   5477      1     32     83       26.40          0.1815E+06
   5478      1     32     84       26.30          0.1815E+06
   5479      1     32     85       26.00          0.1815E+06
   5480      1     32     86       25.00          0.1815E+06
   5481      1     32     87       24.60          0.1815E+06
   5482      1     32     88       24.90          0.1815E+06
   5483      1     32     89       26.20          0.1815E+06
   5484      1     32     90       26.80          0.1815E+06
   5485      1     32     91       27.10          0.1815E+06
   5486      1     32     92       26.70          0.1815E+06
   5487      1     32     93       25.00          0.1815E+06
   5488      1     32     94       24.10          0.1815E+06
   5489      1     32     95       23.50          0.1815E+06
   5490      1     32     96       22.30          0.1815E+06
   5491      1     32     97       20.40          0.1815E+06
   5492      1     32     98       19.10          0.1815E+06
   5493      1     32     99       19.00          0.1815E+06
   5494      1     32    100       17.00          0.1815E+06
   5495      1     32    101       13.70          0.1815E+06
   5496      1     32    102       11.59          0.1815E+06
   5497      1     32    103       10.43          0.1815E+06
   5498      1     32    104       9.210          0.1815E+06
   5499      1     32    105       8.840          0.1815E+06
   5500      1     32    106       9.300          0.1815E+06
   5501      1     32    107       9.100          0.1815E+06
   5502      1     32    108       8.590          0.1815E+06
   5503      1     32    109       8.770          0.1815E+06
   5504      1     32    110       10.05          0.1815E+06
   5505      1     32    111       9.810          0.1815E+06
   5506      1     32    112       9.510          0.1815E+06
   5507      1     32    113       8.730          0.1815E+06
   5508      1     32    114       8.920          0.1815E+06
   5509      1     32    115       11.54          0.1815E+06
   5510      1     32    116       15.40          0.1815E+06
   5511      1     32    117       17.80          0.1815E+06
   5512      1     32    118       16.20          0.1815E+06
   5513      1     32    119       9.740          0.1815E+06
   5514      1     32    120       16.90          0.1815E+06
   5515      1     32    121       25.30          0.1815E+06
   5516      1     32    122       27.50          0.1815E+06
   5517      1     32    123       30.30          0.1815E+06
   5518      1     32    124       32.60          0.1815E+06
   5519      1     32    125       33.30          0.1815E+06
   5520      1     32    126       33.80          0.1815E+06
   5521      1     32    127       32.40          0.1815E+06
   5522      1     32    128       32.30          0.1815E+06
   5523      1     32    129       35.00          0.1815E+06
   5524      1     32    130       37.40          0.1815E+06
   5525      1     32    131       37.60          0.1815E+06
   5526      1     32    132       37.70          0.1815E+06
   5527      1     32    133       39.00          0.1815E+06
   5528      1     32    134       40.10          0.1815E+06
   5529      1     32    135       40.80          0.1815E+06
   5530      1     32    136       41.20          0.1815E+06
   5531      1     32    137       42.00          0.1815E+06
   5532      1     32    138       43.20          0.1815E+06
   5533      1     32    139       44.80          0.1815E+06
   5534      1     32    140       45.70          0.1815E+06
   5535      1     32    141       49.20          0.1815E+06
   5536      1     32    142       52.70          0.1815E+06
   5537      1     32    143       55.70          0.1815E+06
   5538      1     32    144       57.70          0.1815E+06
   5539      1     32    145       60.90          0.1815E+06
   5540      1     32    146       65.10          0.1815E+06
   5541      1     32    147       70.50          0.1815E+06
   5542      1     32    148       76.40          0.1815E+06
   5543      1     32    149       81.80          0.1815E+06
   5544      1     32    150       89.50          0.1815E+06
   5545      1     32    151       95.50          0.1815E+06
   5546      1     32    152       99.10          0.1815E+06
   5547      1     32    153       102.7          0.1815E+06
   5548      1     32    154       106.7          0.1815E+06
   5549      1     32    155       111.2          0.1815E+06
   5550      1     32    156       105.9          0.1815E+06
   5551      1     32    157       94.80          0.1815E+06
   5552      1     32    158       81.50          0.1815E+06
   5553      1     32    159       66.90          0.1815E+06
   5554      1     32    160       57.70          0.1815E+06
   5555      1     32    161       51.20          0.1815E+06
   5556      1     32    162       46.10          0.1815E+06
   5557      1     32    163       43.20          0.1815E+06
   5558      1     32    164       39.20          0.1815E+06
   5559      1     32    165       34.80          0.1815E+06
   5560      1     32    166       30.00          0.1815E+06
   5561      1     32    167       26.80          0.1815E+06
   5562      1     32    168       24.80          0.1815E+06
   5563      1     32    169       19.90          0.1815E+06
   5564      1     32    170       18.80          0.1815E+06
   5565      1     32    171       26.80          0.1815E+06
   5566      1     32    172       33.10          0.1815E+06
   5567      1     32    173       34.50          0.1815E+06
   5568      1     32    174       34.90          0.1815E+06
   5569      1     33      1      -1.500          0.1815E+06
   5570      1     33      2      -2.490          0.1815E+06
   5571      1     33      3      -2.490          0.1815E+06
   5572      1     33      4      -1.290          0.1815E+06
   5573      1     33      5     -0.3000          0.1815E+06
   5574      1     33      6     -0.4700          0.1815E+06
   5575      1     33      7     -0.3000          0.1815E+06
   5576      1     33      8      0.4100          0.1815E+06
   5577      1     33      9      0.4100          0.1815E+06
   5578      1     33     10       1.410          0.1815E+06
   5579      1     33     11       2.420          0.1815E+06
   5580      1     33     12       3.420          0.1815E+06
   5581      1     33     13       5.420          0.1815E+06
   5582      1     33     14       7.510          0.1815E+06
   5583      1     33     15       8.670          0.1815E+06
   5584      1     33     16       16.51          0.1815E+06
   5585      1     33     17       10.06          0.1815E+06
   5586      1     33     18       9.720          0.1815E+06
   5587      1     33     19       9.770          0.1815E+06
   5588      1     33     20       9.630          0.1815E+06
   5589      1     33     21       10.53          0.1815E+06
   5590      1     33     22       9.900          0.1815E+06
   5591      1     33     23       10.72          0.1815E+06
   5592      1     33     24       11.85          0.1815E+06
   5593      1     33     25       12.48          0.1815E+06
   5594      1     33     26       12.82          0.1815E+06
   5595      1     33     27       12.89          0.1815E+06
   5596      1     33     28       13.18          0.1815E+06
   5597      1     33     29       13.78          0.1815E+06
   5598      1     33     30       13.56          0.1815E+06
   5599      1     33     31       13.63          0.1815E+06
   5600      1     33     32       13.84          0.1815E+06
   5601      1     33     33       14.11          0.1815E+06
   5602      1     33     34       14.72          0.1815E+06
   5603      1     33     35       14.82          0.1815E+06
   5604      1     33     36       15.39          0.1815E+06
   5605      1     33     37       15.64          0.1815E+06
   5606      1     33     38       17.78          0.1815E+06
   5607      1     33     39       16.52          0.1815E+06
   5608      1     33     40       16.85          0.1815E+06
   5609      1     33     41       17.14          0.1815E+06
   5610      1     33     42       17.18          0.1815E+06
   5611      1     33     43       16.89          0.1815E+06
   5612      1     33     44       16.69          0.1815E+06
   5613      1     33     45       15.90          0.1815E+06
   5614      1     33     46       15.32          0.1815E+06
   5615      1     33     47       14.17          0.1815E+06
   5616      1     33     48       14.31          0.1815E+06
   5617      1     33     49       14.15          0.1815E+06
   5618      1     33     50       13.90          0.1815E+06
   5619      1     33     51       13.85          0.1815E+06
   5620      1     33     52       13.92          0.1815E+06
   5621      1     33     53       14.57          0.1815E+06
   5622      1     33     54       14.94          0.1815E+06
   5623      1     33     55       14.77          0.1815E+06
   5624      1     33     56       14.81          0.1815E+06
   5625      1     33     57       15.07          0.1815E+06
   5626      1     33     58       15.36          0.1815E+06
   5627      1     33     59       16.23          0.1815E+06
   5628      1     33     60       20.95          0.1815E+06
   5629      1     33     61       22.71          0.1815E+06
   5630      1     33     62       22.01          0.1815E+06
   5631      1     33     63       20.82          0.1815E+06
   5632      1     33     64       18.18          0.1815E+06
   5633      1     33     65       17.19          0.1815E+06
   5634      1     33     66       16.70          0.1815E+06
   5635      1     33     67       16.50          0.1815E+06
   5636      1     33     68       16.50          0.1815E+06
   5637      1     33     69       17.10          0.1815E+06
   5638      1     33     70       18.10          0.1815E+06
   5639      1     33     71       19.70          0.1815E+06
   5640      1     33     72       23.00          0.1815E+06
   5641      1     33     73       24.00          0.1815E+06
   5642      1     33     74       23.00          0.1815E+06
   5643      1     33     75       21.60          0.1815E+06
   5644      1     33     76       20.80          0.1815E+06
   5645      1     33     77       20.10          0.1815E+06
   5646      1     33     78       19.70          0.1815E+06
   5647      1     33     79       21.20          0.1815E+06
   5648      1     33     80       23.10          0.1815E+06
   5649      1     33     81       25.30          0.1815E+06
   5650      1     33     82       27.00          0.1815E+06
   5651      1     33     83       28.80          0.1815E+06
   5652      1     33     84       29.20          0.1815E+06
   5653      1     33     85       29.80          0.1815E+06
   5654      1     33     86       29.30          0.1815E+06
   5655      1     33     87       28.30          0.1815E+06
   5656      1     33     88       29.30          0.1815E+06
   5657      1     33     89       30.30          0.1815E+06
   5658      1     33     90       30.40          0.1815E+06
   5659      1     33     91       30.70          0.1815E+06
   5660      1     33     92       30.40          0.1815E+06
   5661      1     33     93       27.50          0.1815E+06
   5662      1     33     94       25.10          0.1815E+06
   5663      1     33     95       23.50          0.1815E+06
   5664      1     33     96       21.80          0.1815E+06
   5665      1     33     97       21.20          0.1815E+06
   5666      1     33     98       22.30          0.1815E+06
   5667      1     33     99       23.10          0.1815E+06
   5668      1     33    100       20.70          0.1815E+06
   5669      1     33    101       17.70          0.1815E+06
   5670      1     33    102       15.10          0.1815E+06
   5671      1     33    103       12.50          0.1815E+06
   5672      1     33    104       9.940          0.1815E+06
   5673      1     33    105       9.840          0.1815E+06
   5674      1     33    106       10.13          0.1815E+06
   5675      1     33    107       13.42          0.1815E+06
   5676      1     33    108       10.30          0.1815E+06
   5677      1     33    109       9.090          0.1815E+06
   5678      1     33    110       9.390          0.1815E+06
   5679      1     33    111       12.30          0.1815E+06
   5680      1     33    112       12.30          0.1815E+06
   5681      1     33    113       10.37          0.1815E+06
   5682      1     33    114       9.570          0.1815E+06
   5683      1     33    115       15.00          0.1815E+06
   5684      1     33    116       18.30          0.1815E+06
   5685      1     33    117       20.80          0.1815E+06
   5686      1     33    118       18.80          0.1815E+06
   5687      1     33    119       12.30          0.1815E+06
   5688      1     33    120       13.90          0.1815E+06
   5689      1     33    121       24.00          0.1815E+06
   5690      1     33    122       29.20          0.1815E+06
   5691      1     33    123       32.00          0.1815E+06
   5692      1     33    124       33.20          0.1815E+06
   5693      1     33    125       34.40          0.1815E+06
   5694      1     33    126       34.60          0.1815E+06
   5695      1     33    127       34.10          0.1815E+06
   5696      1     33    128       34.00          0.1815E+06
   5697      1     33    129       35.70          0.1815E+06
   5698      1     33    130       37.60          0.1815E+06
   5699      1     33    131       38.50          0.1815E+06
   5700      1     33    132       37.70          0.1815E+06
   5701      1     33    133       38.50          0.1815E+06
   5702      1     33    134       39.10          0.1815E+06
   5703      1     33    135       39.40          0.1815E+06
   5704      1     33    136       40.50          0.1815E+06
   5705      1     33    137       41.30          0.1815E+06
   5706      1     33    138       41.80          0.1815E+06
   5707      1     33    139       43.30          0.1815E+06
   5708      1     33    140       44.40          0.1815E+06
   5709      1     33    141       45.60          0.1815E+06
   5710      1     33    142       48.50          0.1815E+06
   5711      1     33    143       51.00          0.1815E+06
   5712      1     33    144       54.40          0.1815E+06
   5713      1     33    145       56.30          0.1815E+06
   5714      1     33    146       58.50          0.1815E+06
   5715      1     33    147       63.50          0.1815E+06
   5716      1     33    148       67.10          0.1815E+06
   5717      1     33    149       71.10          0.1815E+06
   5718      1     33    150       79.10          0.1815E+06
   5719      1     33    151       84.20          0.1815E+06
   5720      1     33    152       88.00          0.1815E+06
   5721      1     33    153       91.00          0.1815E+06
   5722      1     33    154       95.00          0.1815E+06
   5723      1     33    155       98.90          0.1815E+06
   5724      1     33    156       100.3          0.1815E+06
   5725      1     33    157       93.90          0.1815E+06
   5726      1     33    158       80.00          0.1815E+06
   5727      1     33    159       67.10          0.1815E+06
   5728      1     33    160       55.10          0.1815E+06
   5729      1     33    161       48.90          0.1815E+06
   5730      1     33    162       43.30          0.1815E+06
   5731      1     33    163       38.10          0.1815E+06
   5732      1     33    164       34.80          0.1815E+06
   5733      1     33    165       31.00          0.1815E+06
   5734      1     33    166       27.00          0.1815E+06
   5735      1     33    167       23.80          0.1815E+06
   5736      1     33    168       20.50          0.1815E+06
   5737      1     33    169       19.00          0.1815E+06
   5738      1     33    170       22.30          0.1815E+06
   5739      1     33    171       28.70          0.1815E+06
   5740      1     33    172       34.30          0.1815E+06
   5741      1     33    173       36.70          0.1815E+06
   5742      1     33    174       37.30          0.1815E+06
   5743      1     34      1      -2.500          0.1815E+06
   5744      1     34      2      -2.760          0.1815E+06
   5745      1     34      3      -2.760          0.1815E+06
   5746      1     34      4      -2.000          0.1815E+06
   5747      1     34      5      -2.000          0.1815E+06
   5748      1     34      6      -1.600          0.1815E+06
   5749      1     34      7      -1.800          0.1815E+06
   5750      1     34      8      0.4100          0.1815E+06
   5751      1     34      9      0.4100          0.1815E+06
   5752      1     34     10       1.410          0.1815E+06
   5753      1     34     11       2.420          0.1815E+06
   5754      1     34     12       3.420          0.1815E+06
   5755      1     34     13       5.420          0.1815E+06
   5756      1     34     14       6.920          0.1815E+06
   5757      1     34     15       6.920          0.1815E+06
   5758      1     34     16       11.60          0.1815E+06
   5759      1     34     17       9.430          0.1815E+06
   5760      1     34     18       9.010          0.1815E+06
   5761      1     34     19       9.510          0.1815E+06
   5762      1     34     20       9.060          0.1815E+06
   5763      1     34     21       11.11          0.1815E+06
   5764      1     34     22       10.73          0.1815E+06
   5765      1     34     23       11.14          0.1815E+06
   5766      1     34     24       11.48          0.1815E+06
   5767      1     34     25       12.26          0.1815E+06
   5768      1     34     26       12.94          0.1815E+06
   5769      1     34     27       12.55          0.1815E+06
   5770      1     34     28       12.96          0.1815E+06
   5771      1     34     29       13.72          0.1815E+06
   5772      1     34     30       13.27          0.1815E+06
   5773      1     34     31       13.93          0.1815E+06
   5774      1     34     32       14.61          0.1815E+06
   5775      1     34     33       14.77          0.1815E+06
   5776      1     34     34       14.75          0.1815E+06
   5777      1     34     35       14.92          0.1815E+06
   5778      1     34     36       15.34          0.1815E+06
   5779      1     34     37       15.77          0.1815E+06
   5780      1     34     38       16.60          0.1815E+06
   5781      1     34     39       16.30          0.1815E+06
   5782      1     34     40       16.87          0.1815E+06
   5783      1     34     41       17.00          0.1815E+06
   5784      1     34     42       18.67          0.1815E+06
   5785      1     34     43       18.71          0.1815E+06
   5786      1     34     44       17.54          0.1815E+06
   5787      1     34     45       16.65          0.1815E+06
   5788      1     34     46       15.19          0.1815E+06
   5789      1     34     47       14.55          0.1815E+06
   5790      1     34     48       15.01          0.1815E+06
   5791      1     34     49       14.25          0.1815E+06
   5792      1     34     50       14.71          0.1815E+06
   5793      1     34     51       15.09          0.1815E+06
   5794      1     34     52       15.27          0.1815E+06
   5795      1     34     53       15.22          0.1815E+06
   5796      1     34     54       14.97          0.1815E+06
   5797      1     34     55       14.68          0.1815E+06
   5798      1     34     56       14.52          0.1815E+06
   5799      1     34     57       14.51          0.1815E+06
   5800      1     34     58       14.44          0.1815E+06
   5801      1     34     59       16.40          0.1815E+06
   5802      1     34     60       20.60          0.1815E+06
   5803      1     34     61       22.34          0.1815E+06
   5804      1     34     62       24.95          0.1815E+06
   5805      1     34     63       25.76          0.1815E+06
   5806      1     34     64       22.20          0.1815E+06
   5807      1     34     65       19.90          0.1815E+06
   5808      1     34     66       18.70          0.1815E+06
   5809      1     34     67       18.20          0.1815E+06
   5810      1     34     68       18.20          0.1815E+06
   5811      1     34     69       19.50          0.1815E+06
   5812      1     34     70       20.50          0.1815E+06
   5813      1     34     71       23.40          0.1815E+06
   5814      1     34     72       25.50          0.1815E+06
   5815      1     34     73       24.60          0.1815E+06
   5816      1     34     74       22.90          0.1815E+06
   5817      1     34     75       21.30          0.1815E+06
   5818      1     34     76       19.80          0.1815E+06
   5819      1     34     77       18.20          0.1815E+06
   5820      1     34     78       18.70          0.1815E+06
   5821      1     34     79       20.20          0.1815E+06
   5822      1     34     80       23.20          0.1815E+06
   5823      1     34     81       26.10          0.1815E+06
   5824      1     34     82       28.40          0.1815E+06
   5825      1     34     83       30.40          0.1815E+06
   5826      1     34     84       31.40          0.1815E+06
   5827      1     34     85       31.90          0.1815E+06
   5828      1     34     86       31.90          0.1815E+06
   5829      1     34     87       31.60          0.1815E+06
   5830      1     34     88       32.00          0.1815E+06
   5831      1     34     89       32.40          0.1815E+06
   5832      1     34     90       32.90          0.1815E+06
   5833      1     34     91       32.80          0.1815E+06
   5834      1     34     92       31.80          0.1815E+06
   5835      1     34     93       29.40          0.1815E+06
   5836      1     34     94       25.20          0.1815E+06
   5837      1     34     95       23.00          0.1815E+06
   5838      1     34     96       22.50          0.1815E+06
   5839      1     34     97       23.00          0.1815E+06
   5840      1     34     98       24.50          0.1815E+06
   5841      1     34     99       25.70          0.1815E+06
   5842      1     34    100       25.70          0.1815E+06
   5843      1     34    101       23.80          0.1815E+06
   5844      1     34    102       19.60          0.1815E+06
   5845      1     34    103       16.60          0.1815E+06
   5846      1     34    104       13.40          0.1815E+06
   5847      1     34    105       15.10          0.1815E+06
   5848      1     34    106       15.60          0.1815E+06
   5849      1     34    107       17.40          0.1815E+06
   5850      1     34    108       17.00          0.1815E+06
   5851      1     34    109       15.30          0.1815E+06
   5852      1     34    110       15.40          0.1815E+06
   5853      1     34    111       15.60          0.1815E+06
   5854      1     34    112       15.40          0.1815E+06
   5855      1     34    113       13.40          0.1815E+06
   5856      1     34    114       13.10          0.1815E+06
   5857      1     34    115       17.80          0.1815E+06
   5858      1     34    116       21.70          0.1815E+06
   5859      1     34    117       23.80          0.1815E+06
   5860      1     34    118       22.60          0.1815E+06
   5861      1     34    119       18.50          0.1815E+06
   5862      1     34    120       13.00          0.1815E+06
   5863      1     34    121       26.10          0.1815E+06
   5864      1     34    122       32.90          0.1815E+06
   5865      1     34    123       34.30          0.1815E+06
   5866      1     34    124       34.90          0.1815E+06
   5867      1     34    125       35.70          0.1815E+06
   5868      1     34    126       36.40          0.1815E+06
   5869      1     34    127       36.90          0.1815E+06
   5870      1     34    128       37.00          0.1815E+06
   5871      1     34    129       35.40          0.1815E+06
   5872      1     34    130       37.10          0.1815E+06
   5873      1     34    131       38.80          0.1815E+06
   5874      1     34    132       38.90          0.1815E+06
   5875      1     34    133       38.50          0.1815E+06
   5876      1     34    134       38.70          0.1815E+06
   5877      1     34    135       38.70          0.1815E+06
   5878      1     34    136       39.10          0.1815E+06
   5879      1     34    137       39.90          0.1815E+06
   5880      1     34    138       40.90          0.1815E+06
   5881      1     34    139       42.30          0.1815E+06
   5882      1     34    140       43.70          0.1815E+06
   5883      1     34    141       45.70          0.1815E+06
   5884      1     34    142       47.20          0.1815E+06
   5885      1     34    143       49.10          0.1815E+06
   5886      1     34    144       51.10          0.1815E+06
   5887      1     34    145       51.70          0.1815E+06
   5888      1     34    146       52.70          0.1815E+06
   5889      1     34    147       56.90          0.1815E+06
   5890      1     34    148       60.00          0.1815E+06
   5891      1     34    149       63.30          0.1815E+06
   5892      1     34    150       68.80          0.1815E+06
   5893      1     34    151       73.50          0.1815E+06
   5894      1     34    152       78.70          0.1815E+06
   5895      1     34    153       81.00          0.1815E+06
   5896      1     34    154       84.00          0.1815E+06
   5897      1     34    155       86.20          0.1815E+06
   5898      1     34    156       87.80          0.1815E+06
   5899      1     34    157       85.70          0.1815E+06
   5900      1     34    158       77.20          0.1815E+06
   5901      1     34    159       65.00          0.1815E+06
   5902      1     34    160       53.00          0.1815E+06
   5903      1     34    161       45.30          0.1815E+06
   5904      1     34    162       38.70          0.1815E+06
   5905      1     34    163       33.80          0.1815E+06
   5906      1     34    164       30.90          0.1815E+06
   5907      1     34    165       27.90          0.1815E+06
   5908      1     34    166       23.60          0.1815E+06
   5909      1     34    167       20.50          0.1815E+06
   5910      1     34    168       19.30          0.1815E+06
   5911      1     34    169       19.80          0.1815E+06
   5912      1     34    170       25.10          0.1815E+06
   5913      1     34    171       29.60          0.1815E+06
   5914      1     34    172       35.30          0.1815E+06
   5915      1     34    173       37.60          0.1815E+06
   5916      1     34    174       38.60          0.1815E+06
   5917      1     35      1      -2.810          0.1815E+06
   5918      1     35      2      -2.410          0.1815E+06
   5919      1     35      3      -2.410          0.1815E+06
   5920      1     35      4      -2.310          0.1815E+06
   5921      1     35      5      -2.000          0.1815E+06
   5922      1     35      6      -1.600          0.1815E+06
   5923      1     35      7     -0.8000          0.1815E+06
   5924      1     35      8      0.4100          0.1815E+06
   5925      1     35      9      0.4100          0.1815E+06
   5926      1     35     10      0.4100          0.1815E+06
   5927      1     35     11       1.410          0.1815E+06
   5928      1     35     12       3.420          0.1815E+06
   5929      1     35     13       4.420          0.1815E+06
   5930      1     35     14       5.420          0.1815E+06
   5931      1     35     15       5.420          0.1815E+06
   5932      1     35     16       13.77          0.1815E+06
   5933      1     35     17       10.14          0.1815E+06
   5934      1     35     18       9.140          0.1815E+06
   5935      1     35     19       10.34          0.1815E+06
   5936      1     35     20       12.60          0.1815E+06
   5937      1     35     21       11.39          0.1815E+06
   5938      1     35     22       11.39          0.1815E+06
   5939      1     35     23       10.38          0.1815E+06
   5940      1     35     24       10.35          0.1815E+06
   5941      1     35     25       11.57          0.1815E+06
   5942      1     35     26       12.30          0.1815E+06
   5943      1     35     27       12.43          0.1815E+06
   5944      1     35     28       12.75          0.1815E+06
   5945      1     35     29       13.27          0.1815E+06
   5946      1     35     30       13.90          0.1815E+06
   5947      1     35     31       14.02          0.1815E+06
   5948      1     35     32       14.60          0.1815E+06
   5949      1     35     33       14.26          0.1815E+06
   5950      1     35     34       14.56          0.1815E+06
   5951      1     35     35       14.77          0.1815E+06
   5952      1     35     36       15.01          0.1815E+06
   5953      1     35     37       15.82          0.1815E+06
   5954      1     35     38       16.27          0.1815E+06
   5955      1     35     39       16.27          0.1815E+06
   5956      1     35     40       17.02          0.1815E+06
   5957      1     35     41       16.95          0.1815E+06
   5958      1     35     42       17.17          0.1815E+06
   5959      1     35     43       17.62          0.1815E+06
   5960      1     35     44       16.71          0.1815E+06
   5961      1     35     45       16.42          0.1815E+06
   5962      1     35     46       16.12          0.1815E+06
   5963      1     35     47       15.53          0.1815E+06
   5964      1     35     48       15.48          0.1815E+06
   5965      1     35     49       15.10          0.1815E+06
   5966      1     35     50       15.61          0.1815E+06
   5967      1     35     51       15.81          0.1815E+06
   5968      1     35     52       17.20          0.1815E+06
   5969      1     35     53       17.17          0.1815E+06
   5970      1     35     54       17.15          0.1815E+06
   5971      1     35     55       15.94          0.1815E+06
   5972      1     35     56       15.21          0.1815E+06
   5973      1     35     57       15.43          0.1815E+06
   5974      1     35     58       15.47          0.1815E+06
   5975      1     35     59       15.84          0.1815E+06
   5976      1     35     60       18.57          0.1815E+06
   5977      1     35     61       21.87          0.1815E+06
   5978      1     35     62       24.02          0.1815E+06
   5979      1     35     63       25.90          0.1815E+06
   5980      1     35     64       26.90          0.1815E+06
   5981      1     35     65       26.20          0.1815E+06
   5982      1     35     66       24.20          0.1815E+06
   5983      1     35     67       23.30          0.1815E+06
   5984      1     35     68       23.10          0.1815E+06
   5985      1     35     69       25.40          0.1815E+06
   5986      1     35     70       26.40          0.1815E+06
   5987      1     35     71       26.30          0.1815E+06
   5988      1     35     72       25.80          0.1815E+06
   5989      1     35     73       23.60          0.1815E+06
   5990      1     35     74       21.70          0.1815E+06
   5991      1     35     75       19.90          0.1815E+06
   5992      1     35     76       17.40          0.1815E+06
   5993      1     35     77       16.30          0.1815E+06
   5994      1     35     78       17.40          0.1815E+06
   5995      1     35     79       19.60          0.1815E+06
   5996      1     35     80       22.20          0.1815E+06
   5997      1     35     81       24.50          0.1815E+06
   5998      1     35     82       27.40          0.1815E+06
   5999      1     35     83       30.40          0.1815E+06
   6000      1     35     84       32.20          0.1815E+06
   6001      1     35     85       32.70          0.1815E+06
   6002      1     35     86       32.80          0.1815E+06
   6003      1     35     87       32.80          0.1815E+06
   6004      1     35     88       33.00          0.1815E+06
   6005      1     35     89       33.60          0.1815E+06
   6006      1     35     90       34.20          0.1815E+06
   6007      1     35     91       34.80          0.1815E+06
   6008      1     35     92       34.30          0.1815E+06
   6009      1     35     93       31.50          0.1815E+06
   6010      1     35     94       26.70          0.1815E+06
   6011      1     35     95       24.20          0.1815E+06
   6012      1     35     96       24.00          0.1815E+06
   6013      1     35     97       24.30          0.1815E+06
   6014      1     35     98       25.70          0.1815E+06
   6015      1     35     99       26.80          0.1815E+06
   6016      1     35    100       27.20          0.1815E+06
   6017      1     35    101       26.50          0.1815E+06
   6018      1     35    102       24.50          0.1815E+06
   6019      1     35    103       22.80          0.1815E+06
   6020      1     35    104       16.20          0.1815E+06
   6021      1     35    105       23.20          0.1815E+06
   6022      1     35    106       23.00          0.1815E+06
   6023      1     35    107       22.30          0.1815E+06
   6024      1     35    108       23.00          0.1815E+06
   6025      1     35    109       21.90          0.1815E+06
   6026      1     35    110       21.30          0.1815E+06
   6027      1     35    111       20.30          0.1815E+06
   6028      1     35    112       18.10          0.1815E+06
   6029      1     35    113       16.50          0.1815E+06
   6030      1     35    114       15.10          0.1815E+06
   6031      1     35    115       21.80          0.1815E+06
   6032      1     35    116       24.70          0.1815E+06
   6033      1     35    117       26.30          0.1815E+06
   6034      1     35    118       26.30          0.1815E+06
   6035      1     35    119       24.30          0.1815E+06
   6036      1     35    120       18.40          0.1815E+06
   6037      1     35    121       20.10          0.1815E+06
   6038      1     35    122       34.00          0.1815E+06
   6039      1     35    123       34.80          0.1815E+06
   6040      1     35    124       35.80          0.1815E+06
   6041      1     35    125       36.20          0.1815E+06
   6042      1     35    126       36.70          0.1815E+06
   6043      1     35    127       37.40          0.1815E+06
   6044      1     35    128       37.80          0.1815E+06
   6045      1     35    129       37.30          0.1815E+06
   6046      1     35    130       37.00          0.1815E+06
   6047      1     35    131       38.40          0.1815E+06
   6048      1     35    132       40.40          0.1815E+06
   6049      1     35    133       40.00          0.1815E+06
   6050      1     35    134       38.50          0.1815E+06
   6051      1     35    135       38.00          0.1815E+06
   6052      1     35    136       38.60          0.1815E+06
   6053      1     35    137       39.20          0.1815E+06
   6054      1     35    138       40.20          0.1815E+06
   6055      1     35    139       42.30          0.1815E+06
   6056      1     35    140       44.40          0.1815E+06
   6057      1     35    141       45.70          0.1815E+06
   6058      1     35    142       45.80          0.1815E+06
   6059      1     35    143       46.20          0.1815E+06
   6060      1     35    144       47.80          0.1815E+06
   6061      1     35    145       46.50          0.1815E+06
   6062      1     35    146       48.70          0.1815E+06
   6063      1     35    147       52.10          0.1815E+06
   6064      1     35    148       53.50          0.1815E+06
   6065      1     35    149       55.80          0.1815E+06
   6066      1     35    150       60.20          0.1815E+06
   6067      1     35    151       64.70          0.1815E+06
   6068      1     35    152       69.60          0.1815E+06
   6069      1     35    153       73.10          0.1815E+06
   6070      1     35    154       75.70          0.1815E+06
   6071      1     35    155       77.10          0.1815E+06
   6072      1     35    156       77.10          0.1815E+06
   6073      1     35    157       73.80          0.1815E+06
   6074      1     35    158       68.50          0.1815E+06
   6075      1     35    159       59.90          0.1815E+06
   6076      1     35    160       49.60          0.1815E+06
   6077      1     35    161       40.50          0.1815E+06
   6078      1     35    162       34.10          0.1815E+06
   6079      1     35    163       29.80          0.1815E+06
   6080      1     35    164       26.80          0.1815E+06
   6081      1     35    165       24.10          0.1815E+06
   6082      1     35    166       20.00          0.1815E+06
   6083      1     35    167       19.30          0.1815E+06
   6084      1     35    168       19.30          0.1815E+06
   6085      1     35    169       21.60          0.1815E+06
   6086      1     35    170       25.40          0.1815E+06
   6087      1     35    171       30.10          0.1815E+06
   6088      1     35    172       35.30          0.1815E+06
   6089      1     35    173       37.50          0.1815E+06
   6090      1     35    174       39.20          0.1815E+06
   6091      1     36      1      -2.810          0.1815E+06
   6092      1     36      2      -2.410          0.1815E+06
   6093      1     36      3      -2.410          0.1815E+06
   6094      1     36      4      -2.310          0.1815E+06
   6095      1     36      5      -2.310          0.1815E+06
   6096      1     36      6      -2.210          0.1815E+06
   6097      1     36      7      -1.810          0.1815E+06
   6098      1     36      8      -1.910          0.1815E+06
   6099      1     36      9      -1.910          0.1815E+06
   6100      1     36     10      0.4100          0.1815E+06
   6101      1     36     11       1.410          0.1815E+06
   6102      1     36     12       2.420          0.1815E+06
   6103      1     36     13       3.420          0.1815E+06
   6104      1     36     14       4.420          0.1815E+06
   6105      1     36     15       4.420          0.1815E+06
   6106      1     36     16       5.920          0.1815E+06
   6107      1     36     17       11.15          0.1815E+06
   6108      1     36     18       9.340          0.1815E+06
   6109      1     36     19       9.440          0.1815E+06
   6110      1     36     20       8.230          0.1815E+06
   6111      1     36     21       10.67          0.1815E+06
   6112      1     36     22       11.60          0.1815E+06
   6113      1     36     23       11.89          0.1815E+06
   6114      1     36     24       10.44          0.1815E+06
   6115      1     36     25       10.85          0.1815E+06
   6116      1     36     26       11.68          0.1815E+06
   6117      1     36     27       12.77          0.1815E+06
   6118      1     36     28       12.43          0.1815E+06
   6119      1     36     29       12.93          0.1815E+06
   6120      1     36     30       13.15          0.1815E+06
   6121      1     36     31       13.47          0.1815E+06
   6122      1     36     32       14.22          0.1815E+06
   6123      1     36     33       14.60          0.1815E+06
   6124      1     36     34       14.63          0.1815E+06
   6125      1     36     35       14.80          0.1815E+06
   6126      1     36     36       14.97          0.1815E+06
   6127      1     36     37       16.36          0.1815E+06
   6128      1     36     38       16.12          0.1815E+06
   6129      1     36     39       16.17          0.1815E+06
   6130      1     36     40       16.80          0.1815E+06
   6131      1     36     41       17.62          0.1815E+06
   6132      1     36     42       16.76          0.1815E+06
   6133      1     36     43       19.32          0.1815E+06
   6134      1     36     44       16.60          0.1815E+06
   6135      1     36     45       16.88          0.1815E+06
   6136      1     36     46       16.54          0.1815E+06
   6137      1     36     47       16.38          0.1815E+06
   6138      1     36     48       16.14          0.1815E+06
   6139      1     36     49       16.20          0.1815E+06
   6140      1     36     50       15.22          0.1815E+06
   6141      1     36     51       16.95          0.1815E+06
   6142      1     36     52       17.18          0.1815E+06
   6143      1     36     53       17.44          0.1815E+06
   6144      1     36     54       18.05          0.1815E+06
   6145      1     36     55       18.02          0.1815E+06
   6146      1     36     56       17.84          0.1815E+06
   6147      1     36     57       17.95          0.1815E+06
   6148      1     36     58       17.22          0.1815E+06
   6149      1     36     59       17.23          0.1815E+06
   6150      1     36     60       17.85          0.1815E+06
   6151      1     36     61       18.23          0.1815E+06
   6152      1     36     62       20.50          0.1815E+06
   6153      1     36     63       26.10          0.1815E+06
   6154      1     36     64       27.40          0.1815E+06
   6155      1     36     65       27.70          0.1815E+06
   6156      1     36     66       27.60          0.1815E+06
   6157      1     36     67       27.40          0.1815E+06
   6158      1     36     68       27.50          0.1815E+06
   6159      1     36     69       27.80          0.1815E+06
   6160      1     36     70       27.80          0.1815E+06
   6161      1     36     71       27.40          0.1815E+06
   6162      1     36     72       25.00          0.1815E+06
   6163      1     36     73       23.10          0.1815E+06
   6164      1     36     74       21.10          0.1815E+06
   6165      1     36     75       18.60          0.1815E+06
   6166      1     36     76       16.40          0.1815E+06
   6167      1     36     77       15.80          0.1815E+06
   6168      1     36     78       16.70          0.1815E+06
   6169      1     36     79       18.80          0.1815E+06
   6170      1     36     80       21.30          0.1815E+06
   6171      1     36     81       23.40          0.1815E+06
   6172      1     36     82       24.60          0.1815E+06
   6173      1     36     83       27.40          0.1815E+06
   6174      1     36     84       31.10          0.1815E+06
   6175      1     36     85       32.70          0.1815E+06
   6176      1     36     86       33.20          0.1815E+06
   6177      1     36     87       33.80          0.1815E+06
   6178      1     36     88       34.20          0.1815E+06
   6179      1     36     89       34.70          0.1815E+06
   6180      1     36     90       35.50          0.1815E+06
   6181      1     36     91       35.90          0.1815E+06
   6182      1     36     92       35.40          0.1815E+06
   6183      1     36     93       33.50          0.1815E+06
   6184      1     36     94       30.80          0.1815E+06
   6185      1     36     95       27.90          0.1815E+06
   6186      1     36     96       24.90          0.1815E+06
   6187      1     36     97       25.40          0.1815E+06
   6188      1     36     98       26.90          0.1815E+06
   6189      1     36     99       27.50          0.1815E+06
   6190      1     36    100       27.00          0.1815E+06
   6191      1     36    101       27.00          0.1815E+06
   6192      1     36    102       27.60          0.1815E+06
   6193      1     36    103       25.30          0.1815E+06
   6194      1     36    104       20.50          0.1815E+06
   6195      1     36    105       27.60          0.1815E+06
   6196      1     36    106       28.00          0.1815E+06
   6197      1     36    107       27.50          0.1815E+06
   6198      1     36    108       28.20          0.1815E+06
   6199      1     36    109       28.50          0.1815E+06
   6200      1     36    110       27.70          0.1815E+06
   6201      1     36    111       27.30          0.1815E+06
   6202      1     36    112       24.60          0.1815E+06
   6203      1     36    113       19.60          0.1815E+06
   6204      1     36    114       19.50          0.1815E+06
   6205      1     36    115       24.40          0.1815E+06
   6206      1     36    116       26.90          0.1815E+06
   6207      1     36    117       27.50          0.1815E+06
   6208      1     36    118       27.70          0.1815E+06
   6209      1     36    119       26.20          0.1815E+06
   6210      1     36    120       21.20          0.1815E+06
   6211      1     36    121       22.40          0.1815E+06
   6212      1     36    122       31.60          0.1815E+06
   6213      1     36    123       33.70          0.1815E+06
   6214      1     36    124       34.40          0.1815E+06
   6215      1     36    125       35.30          0.1815E+06
   6216      1     36    126       36.10          0.1815E+06
   6217      1     36    127       36.80          0.1815E+06
   6218      1     36    128       36.90          0.1815E+06
   6219      1     36    129       36.60          0.1815E+06
   6220      1     36    130       36.90          0.1815E+06
   6221      1     36    131       37.50          0.1815E+06
   6222      1     36    132       39.60          0.1815E+06
   6223      1     36    133       39.80          0.1815E+06
   6224      1     36    134       38.10          0.1815E+06
   6225      1     36    135       37.90          0.1815E+06
   6226      1     36    136       39.20          0.1815E+06
   6227      1     36    137       40.20          0.1815E+06
   6228      1     36    138       41.30          0.1815E+06
   6229      1     36    139       43.80          0.1815E+06
   6230      1     36    140       45.70          0.1815E+06
   6231      1     36    141       46.00          0.1815E+06
   6232      1     36    142       44.90          0.1815E+06
   6233      1     36    143       44.60          0.1815E+06
   6234      1     36    144       45.80          0.1815E+06
   6235      1     36    145       44.40          0.1815E+06
   6236      1     36    146       46.10          0.1815E+06
   6237      1     36    147       48.30          0.1815E+06
   6238      1     36    148       49.30          0.1815E+06
   6239      1     36    149       50.40          0.1815E+06
   6240      1     36    150       53.10          0.1815E+06
   6241      1     36    151       57.50          0.1815E+06
   6242      1     36    152       60.90          0.1815E+06
   6243      1     36    153       64.70          0.1815E+06
   6244      1     36    154       67.30          0.1815E+06
   6245      1     36    155       68.40          0.1815E+06
   6246      1     36    156       67.40          0.1815E+06
   6247      1     36    157       64.40          0.1815E+06
   6248      1     36    158       59.70          0.1815E+06
   6249      1     36    159       53.30          0.1815E+06
   6250      1     36    160       45.30          0.1815E+06
   6251      1     36    161       35.30          0.1815E+06
   6252      1     36    162       30.00          0.1815E+06
   6253      1     36    163       26.20          0.1815E+06
   6254      1     36    164       24.10          0.1815E+06
   6255      1     36    165       22.20          0.1815E+06
   6256      1     36    166       19.30          0.1815E+06
   6257      1     36    167       18.40          0.1815E+06
   6258      1     36    168       19.10          0.1815E+06
   6259      1     36    169       20.00          0.1815E+06
   6260      1     36    170       24.50          0.1815E+06
   6261      1     36    171       29.80          0.1815E+06
   6262      1     36    172       33.60          0.1815E+06
   6263      1     36    173       36.40          0.1815E+06
   6264      1     36    174       38.60          0.1815E+06
   6265      1     37      1      -2.810          0.1815E+06
   6266      1     37      2      -2.410          0.1815E+06
   6267      1     37      3      -2.410          0.1815E+06
   6268      1     37      4      -2.310          0.1815E+06
   6269      1     37      5      -2.310          0.1815E+06
   6270      1     37      6      -2.210          0.1815E+06
   6271      1     37      7      -1.810          0.1815E+06
   6272      1     37      8      -1.910          0.1815E+06
   6273      1     37      9      -1.910          0.1815E+06
   6274      1     37     10      0.4100          0.1815E+06
   6275      1     37     11       1.410          0.1815E+06
   6276      1     37     12       2.420          0.1815E+06
   6277      1     37     13       3.420          0.1815E+06
   6278      1     37     14       4.420          0.1815E+06
   6279      1     37     15       4.420          0.1815E+06
   6280      1     37     16       5.920          0.1815E+06
   6281      1     37     17       14.76          0.1815E+06
   6282      1     37     18       10.19          0.1815E+06
   6283      1     37     19       9.090          0.1815E+06
   6284      1     37     20       9.110          0.1815E+06
   6285      1     37     21       12.00          0.1815E+06
   6286      1     37     22       9.930          0.1815E+06
   6287      1     37     23       11.15          0.1815E+06
   6288      1     37     24       9.900          0.1815E+06
   6289      1     37     25       10.15          0.1815E+06
   6290      1     37     26       11.67          0.1815E+06
   6291      1     37     27       12.15          0.1815E+06
   6292      1     37     28       12.40          0.1815E+06
   6293      1     37     29       12.77          0.1815E+06
   6294      1     37     30       13.22          0.1815E+06
   6295      1     37     31       13.18          0.1815E+06
   6296      1     37     32       14.09          0.1815E+06
   6297      1     37     33       14.03          0.1815E+06
   6298      1     37     34       14.64          0.1815E+06
   6299      1     37     35       15.15          0.1815E+06
   6300      1     37     36       15.40          0.1815E+06
   6301      1     37     37       15.77          0.1815E+06
   6302      1     37     38       15.61          0.1815E+06
   6303      1     37     39       15.97          0.1815E+06
   6304      1     37     40       16.02          0.1815E+06
   6305      1     37     41       16.13          0.1815E+06
   6306      1     37     42       16.29          0.1815E+06
   6307      1     37     43       16.43          0.1815E+06
   6308      1     37     44       16.63          0.1815E+06
   6309      1     37     45       16.75          0.1815E+06
   6310      1     37     46       16.87          0.1815E+06
   6311      1     37     47       16.72          0.1815E+06
   6312      1     37     48       16.35          0.1815E+06
   6313      1     37     49       16.56          0.1815E+06
   6314      1     37     50       15.68          0.1815E+06
   6315      1     37     51       17.04          0.1815E+06
   6316      1     37     52       17.45          0.1815E+06
   6317      1     37     53       17.70          0.1815E+06
   6318      1     37     54       18.03          0.1815E+06
   6319      1     37     55       18.77          0.1815E+06
   6320      1     37     56       19.65          0.1815E+06
   6321      1     37     57       20.40          0.1815E+06
   6322      1     37     58       19.67          0.1815E+06
   6323      1     37     59       19.23          0.1815E+06
   6324      1     37     60       17.91          0.1815E+06
   6325      1     37     61       17.10          0.1815E+06
   6326      1     37     62       17.90          0.1815E+06
   6327      1     37     63       23.70          0.1815E+06
   6328      1     37     64       26.00          0.1815E+06
   6329      1     37     65       26.80          0.1815E+06
   6330      1     37     66       27.00          0.1815E+06
   6331      1     37     67       27.70          0.1815E+06
   6332      1     37     68       28.30          0.1815E+06
   6333      1     37     69       28.40          0.1815E+06
   6334      1     37     70       28.20          0.1815E+06
   6335      1     37     71       28.40          0.1815E+06
   6336      1     37     72       28.60          0.1815E+06
   6337      1     37     73       26.70          0.1815E+06
   6338      1     37     74       24.50          0.1815E+06
   6339      1     37     75       21.30          0.1815E+06
   6340      1     37     76       17.60          0.1815E+06
   6341      1     37     77       15.50          0.1815E+06
   6342      1     37     78       16.50          0.1815E+06
   6343      1     37     79       18.40          0.1815E+06
   6344      1     37     80       20.50          0.1815E+06
   6345      1     37     81       22.60          0.1815E+06
   6346      1     37     82       23.60          0.1815E+06
   6347      1     37     83       25.70          0.1815E+06
   6348      1     37     84       28.90          0.1815E+06
   6349      1     37     85       32.20          0.1815E+06
   6350      1     37     86       33.60          0.1815E+06
   6351      1     37     87       34.60          0.1815E+06
   6352      1     37     88       35.40          0.1815E+06
   6353      1     37     89       35.60          0.1815E+06
   6354      1     37     90       36.00          0.1815E+06
   6355      1     37     91       36.10          0.1815E+06
   6356      1     37     92       35.80          0.1815E+06
   6357      1     37     93       34.80          0.1815E+06
   6358      1     37     94       32.40          0.1815E+06
   6359      1     37     95       29.80          0.1815E+06
   6360      1     37     96       27.60          0.1815E+06
   6361      1     37     97       27.40          0.1815E+06
   6362      1     37     98       28.00          0.1815E+06
   6363      1     37     99       28.20          0.1815E+06
   6364      1     37    100       27.60          0.1815E+06
   6365      1     37    101       27.60          0.1815E+06
   6366      1     37    102       28.10          0.1815E+06
   6367      1     37    103       25.70          0.1815E+06
   6368      1     37    104       24.40          0.1815E+06
   6369      1     37    105       29.80          0.1815E+06
   6370      1     37    106       30.30          0.1815E+06
   6371      1     37    107       30.40          0.1815E+06
   6372      1     37    108       31.10          0.1815E+06
   6373      1     37    109       31.50          0.1815E+06
   6374      1     37    110       30.80          0.1815E+06
   6375      1     37    111       30.10          0.1815E+06
   6376      1     37    112       26.80          0.1815E+06
   6377      1     37    113       21.00          0.1815E+06
   6378      1     37    114       22.50          0.1815E+06
   6379      1     37    115       25.40          0.1815E+06
   6380      1     37    116       27.80          0.1815E+06
   6381      1     37    117       28.30          0.1815E+06
   6382      1     37    118       27.40          0.1815E+06
   6383      1     37    119       24.60          0.1815E+06
   6384      1     37    120       19.70          0.1815E+06
   6385      1     37    121       21.10          0.1815E+06
   6386      1     37    122       27.20          0.1815E+06
   6387      1     37    123       29.50          0.1815E+06
   6388      1     37    124       30.70          0.1815E+06
   6389      1     37    125       32.60          0.1815E+06
   6390      1     37    126       34.00          0.1815E+06
   6391      1     37    127       35.20          0.1815E+06
   6392      1     37    128       34.90          0.1815E+06
   6393      1     37    129       35.40          0.1815E+06
   6394      1     37    130       34.10          0.1815E+06
   6395      1     37    131       35.60          0.1815E+06
   6396      1     37    132       36.40          0.1815E+06
   6397      1     37    133       36.80          0.1815E+06
   6398      1     37    134       37.50          0.1815E+06
   6399      1     37    135       38.80          0.1815E+06
   6400      1     37    136       40.60          0.1815E+06
   6401      1     37    137       41.80          0.1815E+06
   6402      1     37    138       42.80          0.1815E+06
   6403      1     37    139       44.30          0.1815E+06
   6404      1     37    140       46.10          0.1815E+06
   6405      1     37    141       45.90          0.1815E+06
   6406      1     37    142       44.30          0.1815E+06
   6407      1     37    143       43.50          0.1815E+06
   6408      1     37    144       44.50          0.1815E+06
   6409      1     37    145       43.70          0.1815E+06
   6410      1     37    146       44.90          0.1815E+06
   6411      1     37    147       45.70          0.1815E+06
   6412      1     37    148       45.20          0.1815E+06
   6413      1     37    149       46.10          0.1815E+06
   6414      1     37    150       47.60          0.1815E+06
   6415      1     37    151       50.50          0.1815E+06
   6416      1     37    152       54.00          0.1815E+06
   6417      1     37    153       57.00          0.1815E+06
   6418      1     37    154       59.00          0.1815E+06
   6419      1     37    155       58.70          0.1815E+06
   6420      1     37    156       57.20          0.1815E+06
   6421      1     37    157       54.40          0.1815E+06
   6422      1     37    158       51.10          0.1815E+06
   6423      1     37    159       45.80          0.1815E+06
   6424      1     37    160       39.30          0.1815E+06
   6425      1     37    161       30.90          0.1815E+06
   6426      1     37    162       24.60          0.1815E+06
   6427      1     37    163       23.40          0.1815E+06
   6428      1     37    164       23.00          0.1815E+06
   6429      1     37    165       22.40          0.1815E+06
   6430      1     37    166       20.20          0.1815E+06
   6431      1     37    167       18.30          0.1815E+06
   6432      1     37    168       18.70          0.1815E+06
   6433      1     37    169       19.00          0.1815E+06
   6434      1     37    170       21.60          0.1815E+06
   6435      1     37    171       27.50          0.1815E+06
   6436      1     37    172       31.70          0.1815E+06
   6437      1     37    173       34.60          0.1815E+06
   6438      1     37    174       36.70          0.1815E+06
   6439      1     38      1      -3.010          0.1815E+06
   6440      1     38      2      -2.510          0.1815E+06
   6441      1     38      3      -2.510          0.1815E+06
   6442      1     38      4      -2.710          0.1815E+06
   6443      1     38      5      -2.510          0.1815E+06
   6444      1     38      6      -2.410          0.1815E+06
   6445      1     38      7      -2.110          0.1815E+06
   6446      1     38      8      -1.910          0.1815E+06
   6447      1     38      9      -1.910          0.1815E+06
   6448      1     38     10     -0.5300          0.1815E+06
   6449      1     38     11      0.4100          0.1815E+06
   6450      1     38     12       1.420          0.1815E+06
   6451      1     38     13       2.420          0.1815E+06
   6452      1     38     14       3.420          0.1815E+06
   6453      1     38     15       3.420          0.1815E+06
   6454      1     38     16       4.420          0.1815E+06
   6455      1     38     17       9.720          0.1815E+06
   6456      1     38     18       13.35          0.1815E+06
   6457      1     38     19       9.060          0.1815E+06
   6458      1     38     20       7.630          0.1815E+06
   6459      1     38     21       8.190          0.1815E+06
   6460      1     38     22       8.560          0.1815E+06
   6461      1     38     23       9.670          0.1815E+06
   6462      1     38     24       10.34          0.1815E+06
   6463      1     38     25       12.34          0.1815E+06
   6464      1     38     26       11.88          0.1815E+06
   6465      1     38     27       11.75          0.1815E+06
   6466      1     38     28       12.17          0.1815E+06
   6467      1     38     29       12.48          0.1815E+06
   6468      1     38     30       13.13          0.1815E+06
   6469      1     38     31       13.06          0.1815E+06
   6470      1     38     32       13.27          0.1815E+06
   6471      1     38     33       13.81          0.1815E+06
   6472      1     38     34       14.43          0.1815E+06
   6473      1     38     35       14.68          0.1815E+06
   6474      1     38     36       15.25          0.1815E+06
   6475      1     38     37       16.03          0.1815E+06
   6476      1     38     38       16.22          0.1815E+06
   6477      1     38     39       15.43          0.1815E+06
   6478      1     38     40       15.76          0.1815E+06
   6479      1     38     41       15.78          0.1815E+06
   6480      1     38     42       16.30          0.1815E+06
   6481      1     38     43       16.22          0.1815E+06
   6482      1     38     44       16.39          0.1815E+06
   6483      1     38     45       16.18          0.1815E+06
   6484      1     38     46       16.26          0.1815E+06
   6485      1     38     47       16.54          0.1815E+06
   6486      1     38     48       16.37          0.1815E+06
   6487      1     38     49       16.11          0.1815E+06
   6488      1     38     50       17.05          0.1815E+06
   6489      1     38     51       17.19          0.1815E+06
   6490      1     38     52       17.70          0.1815E+06
   6491      1     38     53       17.97          0.1815E+06
   6492      1     38     54       18.79          0.1815E+06
   6493      1     38     55       19.38          0.1815E+06
   6494      1     38     56       20.60          0.1815E+06
   6495      1     38     57       21.50          0.1815E+06
   6496      1     38     58       20.49          0.1815E+06
   6497      1     38     59       19.70          0.1815E+06
   6498      1     38     60       18.90          0.1815E+06
   6499      1     38     61       16.90          0.1815E+06
   6500      1     38     62       15.70          0.1815E+06
   6501      1     38     63       19.60          0.1815E+06
   6502      1     38     64       21.50          0.1815E+06
   6503      1     38     65       22.80          0.1815E+06
   6504      1     38     66       24.50          0.1815E+06
   6505      1     38     67       26.90          0.1815E+06
   6506      1     38     68       28.00          0.1815E+06
   6507      1     38     69       28.90          0.1815E+06
   6508      1     38     70       29.90          0.1815E+06
   6509      1     38     71       31.40          0.1815E+06
   6510      1     38     72       31.90          0.1815E+06
   6511      1     38     73       30.30          0.1815E+06
   6512      1     38     74       27.60          0.1815E+06
   6513      1     38     75       24.80          0.1815E+06
   6514      1     38     76       18.50          0.1815E+06
   6515      1     38     77       15.70          0.1815E+06
   6516      1     38     78       17.00          0.1815E+06
   6517      1     38     79       19.20          0.1815E+06
   6518      1     38     80       21.40          0.1815E+06
   6519      1     38     81       23.20          0.1815E+06
   6520      1     38     82       24.20          0.1815E+06
   6521      1     38     83       26.80          0.1815E+06
   6522      1     38     84       30.20          0.1815E+06
   6523      1     38     85       32.40          0.1815E+06
   6524      1     38     86       34.00          0.1815E+06
   6525      1     38     87       35.20          0.1815E+06
   6526      1     38     88       36.00          0.1815E+06
   6527      1     38     89       36.20          0.1815E+06
   6528      1     38     90       36.20          0.1815E+06
   6529      1     38     91       36.30          0.1815E+06
   6530      1     38     92       35.90          0.1815E+06
   6531      1     38     93       34.30          0.1815E+06
   6532      1     38     94       31.10          0.1815E+06
   6533      1     38     95       29.70          0.1815E+06
   6534      1     38     96       29.80          0.1815E+06
   6535      1     38     97       29.90          0.1815E+06
   6536      1     38     98       29.00          0.1815E+06
   6537      1     38     99       28.50          0.1815E+06
   6538      1     38    100       28.60          0.1815E+06
   6539      1     38    101       28.20          0.1815E+06
   6540      1     38    102       27.20          0.1815E+06
   6541      1     38    103       25.30          0.1815E+06
   6542      1     38    104       28.00          0.1815E+06
   6543      1     38    105       31.60          0.1815E+06
   6544      1     38    106       31.70          0.1815E+06
   6545      1     38    107       31.40          0.1815E+06
   6546      1     38    108       31.70          0.1815E+06
   6547      1     38    109       32.20          0.1815E+06
   6548      1     38    110       32.10          0.1815E+06
   6549      1     38    111       29.90          0.1815E+06
   6550      1     38    112       25.60          0.1815E+06
   6551      1     38    113       24.30          0.1815E+06
   6552      1     38    114       23.10          0.1815E+06
   6553      1     38    115       26.50          0.1815E+06
   6554      1     38    116       30.00          0.1815E+06
   6555      1     38    117       29.60          0.1815E+06
   6556      1     38    118       27.10          0.1815E+06
   6557      1     38    119       25.30          0.1815E+06
   6558      1     38    120       22.40          0.1815E+06
   6559      1     38    121       19.10          0.1815E+06
   6560      1     38    122       20.00          0.1815E+06
   6561      1     38    123       22.90          0.1815E+06
   6562      1     38    124       26.20          0.1815E+06
   6563      1     38    125       29.50          0.1815E+06
   6564      1     38    126       30.90          0.1815E+06
   6565      1     38    127       31.60          0.1815E+06
   6566      1     38    128       31.40          0.1815E+06
   6567      1     38    129       31.70          0.1815E+06
   6568      1     38    130       31.10          0.1815E+06
   6569      1     38    131       33.40          0.1815E+06
   6570      1     38    132       34.50          0.1815E+06
   6571      1     38    133       35.70          0.1815E+06
   6572      1     38    134       37.50          0.1815E+06
   6573      1     38    135       39.50          0.1815E+06
   6574      1     38    136       41.40          0.1815E+06
   6575      1     38    137       42.40          0.1815E+06
   6576      1     38    138       43.20          0.1815E+06
   6577      1     38    139       44.10          0.1815E+06
   6578      1     38    140       44.90          0.1815E+06
   6579      1     38    141       45.20          0.1815E+06
   6580      1     38    142       43.50          0.1815E+06
   6581      1     38    143       41.50          0.1815E+06
   6582      1     38    144       40.50          0.1815E+06
   6583      1     38    145       40.70          0.1815E+06
   6584      1     38    146       42.60          0.1815E+06
   6585      1     38    147       43.90          0.1815E+06
   6586      1     38    148       42.80          0.1815E+06
   6587      1     38    149       42.90          0.1815E+06
   6588      1     38    150       43.60          0.1815E+06
   6589      1     38    151       44.40          0.1815E+06
   6590      1     38    152       46.20          0.1815E+06
   6591      1     38    153       49.00          0.1815E+06
   6592      1     38    154       50.20          0.1815E+06
   6593      1     38    155       49.20          0.1815E+06
   6594      1     38    156       47.30          0.1815E+06
   6595      1     38    157       45.00          0.1815E+06
   6596      1     38    158       42.00          0.1815E+06
   6597      1     38    159       37.60          0.1815E+06
   6598      1     38    160       33.30          0.1815E+06
   6599      1     38    161       26.80          0.1815E+06
   6600      1     38    162       23.30          0.1815E+06
   6601      1     38    163       23.10          0.1815E+06
   6602      1     38    164       22.80          0.1815E+06
   6603      1     38    165       22.10          0.1815E+06
   6604      1     38    166       21.00          0.1815E+06
   6605      1     38    167       19.10          0.1815E+06
   6606      1     38    168       19.20          0.1815E+06
   6607      1     38    169       19.30          0.1815E+06
   6608      1     38    170       19.70          0.1815E+06
   6609      1     38    171       24.40          0.1815E+06
   6610      1     38    172       28.90          0.1815E+06
   6611      1     38    173       32.40          0.1815E+06
   6612      1     38    174       34.90          0.1815E+06
   6613      1     39      1      -2.920          0.1815E+06
   6614      1     39      2      -3.920          0.1815E+06
   6615      1     39      3      -3.920          0.1815E+06
   6616      1     39      4      -2.720          0.1815E+06
   6617      1     39      5      -2.820          0.1815E+06
   6618      1     39      6      -2.420          0.1815E+06
   6619      1     39      7      -2.320          0.1815E+06
   6620      1     39      8      -2.100          0.1815E+06
   6621      1     39      9      -2.100          0.1815E+06
   6622      1     39     10      -1.720          0.1815E+06
   6623      1     39     11      0.4100          0.1815E+06
   6624      1     39     12       1.420          0.1815E+06
   6625      1     39     13       2.420          0.1815E+06
   6626      1     39     14       2.420          0.1815E+06
   6627      1     39     15       2.420          0.1815E+06
   6628      1     39     16       4.420          0.1815E+06
   6629      1     39     17       7.900          0.1815E+06
   6630      1     39     18       9.630          0.1815E+06
   6631      1     39     19       8.930          0.1815E+06
   6632      1     39     20       9.310          0.1815E+06
   6633      1     39     21       8.420          0.1815E+06
   6634      1     39     22       8.520          0.1815E+06
   6635      1     39     23       9.020          0.1815E+06
   6636      1     39     24       10.72          0.1815E+06
   6637      1     39     25       12.02          0.1815E+06
   6638      1     39     26       11.59          0.1815E+06
   6639      1     39     27       12.44          0.1815E+06
   6640      1     39     28       12.31          0.1815E+06
   6641      1     39     29       12.40          0.1815E+06
   6642      1     39     30       13.00          0.1815E+06
   6643      1     39     31       13.22          0.1815E+06
   6644      1     39     32       13.43          0.1815E+06
   6645      1     39     33       13.75          0.1815E+06
   6646      1     39     34       13.96          0.1815E+06
   6647      1     39     35       14.57          0.1815E+06
   6648      1     39     36       14.73          0.1815E+06
   6649      1     39     37       14.89          0.1815E+06
   6650      1     39     38       15.30          0.1815E+06
   6651      1     39     39       15.10          0.1815E+06
   6652      1     39     40       15.80          0.1815E+06
   6653      1     39     41       15.57          0.1815E+06
   6654      1     39     42       15.81          0.1815E+06
   6655      1     39     43       15.97          0.1815E+06
   6656      1     39     44       17.27          0.1815E+06
   6657      1     39     45       16.62          0.1815E+06
   6658      1     39     46       16.63          0.1815E+06
   6659      1     39     47       17.22          0.1815E+06
   6660      1     39     48       16.88          0.1815E+06
   6661      1     39     49       16.51          0.1815E+06
   6662      1     39     50       17.35          0.1815E+06
   6663      1     39     51       17.29          0.1815E+06
   6664      1     39     52       18.02          0.1815E+06
   6665      1     39     53       18.43          0.1815E+06
   6666      1     39     54       18.93          0.1815E+06
   6667      1     39     55       19.68          0.1815E+06
   6668      1     39     56       19.60          0.1815E+06
   6669      1     39     57       20.30          0.1815E+06
   6670      1     39     58       20.50          0.1815E+06
   6671      1     39     59       20.00          0.1815E+06
   6672      1     39     60       18.80          0.1815E+06
   6673      1     39     61       15.50          0.1815E+06
   6674      1     39     62       14.10          0.1815E+06
   6675      1     39     63       15.00          0.1815E+06
   6676      1     39     64       16.80          0.1815E+06
   6677      1     39     65       18.60          0.1815E+06
   6678      1     39     66       20.70          0.1815E+06
   6679      1     39     67       24.50          0.1815E+06
   6680      1     39     68       26.90          0.1815E+06
   6681      1     39     69       28.30          0.1815E+06
   6682      1     39     70       30.60          0.1815E+06
   6683      1     39     71       32.50          0.1815E+06
   6684      1     39     72       32.10          0.1815E+06
   6685      1     39     73       29.80          0.1815E+06
   6686      1     39     74       26.10          0.1815E+06
   6687      1     39     75       22.80          0.1815E+06
   6688      1     39     76       17.30          0.1815E+06
   6689      1     39     77       17.60          0.1815E+06
   6690      1     39     78       19.10          0.1815E+06
   6691      1     39     79       21.60          0.1815E+06
   6692      1     39     80       25.10          0.1815E+06
   6693      1     39     81       25.60          0.1815E+06
   6694      1     39     82       26.80          0.1815E+06
   6695      1     39     83       30.50          0.1815E+06
   6696      1     39     84       32.80          0.1815E+06
   6697      1     39     85       34.00          0.1815E+06
   6698      1     39     86       35.70          0.1815E+06
   6699      1     39     87       36.20          0.1815E+06
   6700      1     39     88       36.40          0.1815E+06
   6701      1     39     89       36.50          0.1815E+06
   6702      1     39     90       36.40          0.1815E+06
   6703      1     39     91       36.00          0.1815E+06
   6704      1     39     92       35.20          0.1815E+06
   6705      1     39     93       33.50          0.1815E+06
   6706      1     39     94       31.40          0.1815E+06
   6707      1     39     95       30.80          0.1815E+06
   6708      1     39     96       31.40          0.1815E+06
   6709      1     39     97       31.50          0.1815E+06
   6710      1     39     98       30.30          0.1815E+06
   6711      1     39     99       29.00          0.1815E+06
   6712      1     39    100       29.00          0.1815E+06
   6713      1     39    101       28.90          0.1815E+06
   6714      1     39    102       28.00          0.1815E+06
   6715      1     39    103       27.20          0.1815E+06
   6716      1     39    104       30.50          0.1815E+06
   6717      1     39    105       32.10          0.1815E+06
   6718      1     39    106       32.20          0.1815E+06
   6719      1     39    107       32.00          0.1815E+06
   6720      1     39    108       32.40          0.1815E+06
   6721      1     39    109       32.90          0.1815E+06
   6722      1     39    110       32.70          0.1815E+06
   6723      1     39    111       30.20          0.1815E+06
   6724      1     39    112       28.30          0.1815E+06
   6725      1     39    113       27.20          0.1815E+06
   6726      1     39    114       23.70          0.1815E+06
   6727      1     39    115       25.40          0.1815E+06
   6728      1     39    116       30.10          0.1815E+06
   6729      1     39    117       30.60          0.1815E+06
   6730      1     39    118       28.70          0.1815E+06
   6731      1     39    119       27.70          0.1815E+06
   6732      1     39    120       25.60          0.1815E+06
   6733      1     39    121       21.50          0.1815E+06
   6734      1     39    122       20.70          0.1815E+06
   6735      1     39    123       20.00          0.1815E+06
   6736      1     39    124       22.80          0.1815E+06
   6737      1     39    125       26.70          0.1815E+06
   6738      1     39    126       27.60          0.1815E+06
   6739      1     39    127       26.90          0.1815E+06
   6740      1     39    128       26.30          0.1815E+06
   6741      1     39    129       28.30          0.1815E+06
   6742      1     39    130       30.20          0.1815E+06
   6743      1     39    131       33.60          0.1815E+06
   6744      1     39    132       35.80          0.1815E+06
   6745      1     39    133       36.90          0.1815E+06
   6746      1     39    134       38.20          0.1815E+06
   6747      1     39    135       39.60          0.1815E+06
   6748      1     39    136       41.30          0.1815E+06
   6749      1     39    137       41.80          0.1815E+06
   6750      1     39    138       42.40          0.1815E+06
   6751      1     39    139       43.10          0.1815E+06
   6752      1     39    140       43.40          0.1815E+06
   6753      1     39    141       43.40          0.1815E+06
   6754      1     39    142       42.50          0.1815E+06
   6755      1     39    143       40.80          0.1815E+06
   6756      1     39    144       38.30          0.1815E+06
   6757      1     39    145       36.60          0.1815E+06
   6758      1     39    146       38.80          0.1815E+06
   6759      1     39    147       40.80          0.1815E+06
   6760      1     39    148       40.00          0.1815E+06
   6761      1     39    149       41.10          0.1815E+06
   6762      1     39    150       41.60          0.1815E+06
   6763      1     39    151       41.30          0.1815E+06
   6764      1     39    152       41.70          0.1815E+06
   6765      1     39    153       42.90          0.1815E+06
   6766      1     39    154       42.60          0.1815E+06
   6767      1     39    155       40.30          0.1815E+06
   6768      1     39    156       37.30          0.1815E+06
   6769      1     39    157       36.50          0.1815E+06
   6770      1     39    158       34.50          0.1815E+06
   6771      1     39    159       31.70          0.1815E+06
   6772      1     39    160       28.30          0.1815E+06
   6773      1     39    161       23.90          0.1815E+06
   6774      1     39    162       23.80          0.1815E+06
   6775      1     39    163       24.00          0.1815E+06
   6776      1     39    164       22.90          0.1815E+06
   6777      1     39    165       22.00          0.1815E+06
   6778      1     39    166       21.00          0.1815E+06
   6779      1     39    167       19.50          0.1815E+06
   6780      1     39    168       19.60          0.1815E+06
   6781      1     39    169       19.70          0.1815E+06
   6782      1     39    170       19.50          0.1815E+06
   6783      1     39    171       21.20          0.1815E+06
   6784      1     39    172       25.60          0.1815E+06
   6785      1     39    173       30.00          0.1815E+06
   6786      1     39    174       33.20          0.1815E+06
   6787      1     40      1      -3.520          0.1815E+06
   6788      1     40      2      -3.230          0.1815E+06
   6789      1     40      3      -3.230          0.1815E+06
   6790      1     40      4      -3.220          0.1815E+06
   6791      1     40      5      -2.930          0.1815E+06
   6792      1     40      6      -2.820          0.1815E+06
   6793      1     40      7      -2.820          0.1815E+06
   6794      1     40      8      -2.320          0.1815E+06
   6795      1     40      9      -2.320          0.1815E+06
   6796      1     40     10      -2.120          0.1815E+06
   6797      1     40     11      0.4100          0.1815E+06
   6798      1     40     12       1.420          0.1815E+06
   6799      1     40     13       2.420          0.1815E+06
   6800      1     40     14       2.420          0.1815E+06
   6801      1     40     15       2.420          0.1815E+06
   6802      1     40     16       4.430          0.1815E+06
   6803      1     40     17       6.430          0.1815E+06
   6804      1     40     18       13.75          0.1815E+06
   6805      1     40     19       9.680          0.1815E+06
   6806      1     40     20       9.840          0.1815E+06
   6807      1     40     21       9.590          0.1815E+06
   6808      1     40     22       9.720          0.1815E+06
   6809      1     40     23       9.940          0.1815E+06
   6810      1     40     24       10.14          0.1815E+06
   6811      1     40     25       11.28          0.1815E+06
   6812      1     40     26       11.28          0.1815E+06
   6813      1     40     27       11.56          0.1815E+06
   6814      1     40     28       12.56          0.1815E+06
   6815      1     40     29       13.06          0.1815E+06
   6816      1     40     30       14.03          0.1815E+06
   6817      1     40     31       13.46          0.1815E+06
   6818      1     40     32       13.77          0.1815E+06
   6819      1     40     33       14.06          0.1815E+06
   6820      1     40     34       14.10          0.1815E+06
   6821      1     40     35       14.39          0.1815E+06
   6822      1     40     36       14.72          0.1815E+06
   6823      1     40     37       15.06          0.1815E+06
   6824      1     40     38       15.01          0.1815E+06
   6825      1     40     39       15.15          0.1815E+06
   6826      1     40     40       15.50          0.1815E+06
   6827      1     40     41       15.43          0.1815E+06
   6828      1     40     42       15.71          0.1815E+06
   6829      1     40     43       15.88          0.1815E+06
   6830      1     40     44       16.03          0.1815E+06
   6831      1     40     45       16.48          0.1815E+06
   6832      1     40     46       16.75          0.1815E+06
   6833      1     40     47       17.00          0.1815E+06
   6834      1     40     48       17.32          0.1815E+06
   6835      1     40     49       16.57          0.1815E+06
   6836      1     40     50       17.13          0.1815E+06
   6837      1     40     51       17.50          0.1815E+06
   6838      1     40     52       17.54          0.1815E+06
   6839      1     40     53       17.68          0.1815E+06
   6840      1     40     54       17.11          0.1815E+06
   6841      1     40     55       18.10          0.1815E+06
   6842      1     40     56       19.30          0.1815E+06
   6843      1     40     57       20.10          0.1815E+06
   6844      1     40     58       20.40          0.1815E+06
   6845      1     40     59       20.20          0.1815E+06
   6846      1     40     60       17.80          0.1815E+06
   6847      1     40     61       14.90          0.1815E+06
   6848      1     40     62       14.20          0.1815E+06
   6849      1     40     63       15.00          0.1815E+06
   6850      1     40     64       16.00          0.1815E+06
   6851      1     40     65       16.70          0.1815E+06
   6852      1     40     66       17.70          0.1815E+06
   6853      1     40     67       19.50          0.1815E+06
   6854      1     40     68       22.10          0.1815E+06
   6855      1     40     69       24.50          0.1815E+06
   6856      1     40     70       27.90          0.1815E+06
   6857      1     40     71       30.40          0.1815E+06
   6858      1     40     72       29.80          0.1815E+06
   6859      1     40     73       26.30          0.1815E+06
   6860      1     40     74       20.80          0.1815E+06
   6861      1     40     75       17.70          0.1815E+06
   6862      1     40     76       19.00          0.1815E+06
   6863      1     40     77       23.90          0.1815E+06
   6864      1     40     78       24.60          0.1815E+06
   6865      1     40     79       26.90          0.1815E+06
   6866      1     40     80       31.40          0.1815E+06
   6867      1     40     81       31.40          0.1815E+06
   6868      1     40     82       32.10          0.1815E+06
   6869      1     40     83       34.70          0.1815E+06
   6870      1     40     84       36.90          0.1815E+06
   6871      1     40     85       38.20          0.1815E+06
   6872      1     40     86       37.90          0.1815E+06
   6873      1     40     87       37.00          0.1815E+06
   6874      1     40     88       36.80          0.1815E+06
   6875      1     40     89       36.70          0.1815E+06
   6876      1     40     90       36.20          0.1815E+06
   6877      1     40     91       35.40          0.1815E+06
   6878      1     40     92       34.50          0.1815E+06
   6879      1     40     93       33.80          0.1815E+06
   6880      1     40     94       33.20          0.1815E+06
   6881      1     40     95       32.90          0.1815E+06
   6882      1     40     96       32.80          0.1815E+06
   6883      1     40     97       32.00          0.1815E+06
   6884      1     40     98       30.30          0.1815E+06
   6885      1     40     99       29.30          0.1815E+06
   6886      1     40    100       29.60          0.1815E+06
   6887      1     40    101       30.30          0.1815E+06
   6888      1     40    102       29.80          0.1815E+06
   6889      1     40    103       29.40          0.1815E+06
   6890      1     40    104       30.30          0.1815E+06
   6891      1     40    105       32.10          0.1815E+06
   6892      1     40    106       32.70          0.1815E+06
   6893      1     40    107       32.80          0.1815E+06
   6894      1     40    108       33.30          0.1815E+06
   6895      1     40    109       34.00          0.1815E+06
   6896      1     40    110       33.70          0.1815E+06
   6897      1     40    111       32.30          0.1815E+06
   6898      1     40    112       31.20          0.1815E+06
   6899      1     40    113       30.30          0.1815E+06
   6900      1     40    114       24.80          0.1815E+06
   6901      1     40    115       28.50          0.1815E+06
   6902      1     40    116       31.90          0.1815E+06
   6903      1     40    117       31.80          0.1815E+06
   6904      1     40    118       30.80          0.1815E+06
   6905      1     40    119       29.50          0.1815E+06
   6906      1     40    120       28.30          0.1815E+06
   6907      1     40    121       24.70          0.1815E+06
   6908      1     40    122       25.90          0.1815E+06
   6909      1     40    123       23.30          0.1815E+06
   6910      1     40    124       21.10          0.1815E+06
   6911      1     40    125       23.50          0.1815E+06
   6912      1     40    126       24.10          0.1815E+06
   6913      1     40    127       24.20          0.1815E+06
   6914      1     40    128       25.20          0.1815E+06
   6915      1     40    129       27.40          0.1815E+06
   6916      1     40    130       30.60          0.1815E+06
   6917      1     40    131       33.80          0.1815E+06
   6918      1     40    132       36.50          0.1815E+06
   6919      1     40    133       38.10          0.1815E+06
   6920      1     40    134       39.20          0.1815E+06
   6921      1     40    135       40.00          0.1815E+06
   6922      1     40    136       40.20          0.1815E+06
   6923      1     40    137       40.60          0.1815E+06
   6924      1     40    138       41.40          0.1815E+06
   6925      1     40    139       41.70          0.1815E+06
   6926      1     40    140       41.50          0.1815E+06
   6927      1     40    141       41.50          0.1815E+06
   6928      1     40    142       41.20          0.1815E+06
   6929      1     40    143       40.20          0.1815E+06
   6930      1     40    144       37.30          0.1815E+06
   6931      1     40    145       34.40          0.1815E+06
   6932      1     40    146       34.80          0.1815E+06
   6933      1     40    147       36.80          0.1815E+06
   6934      1     40    148       36.50          0.1815E+06
   6935      1     40    149       38.10          0.1815E+06
   6936      1     40    150       39.10          0.1815E+06
   6937      1     40    151       38.00          0.1815E+06
   6938      1     40    152       38.30          0.1815E+06
   6939      1     40    153       39.50          0.1815E+06
   6940      1     40    154       38.40          0.1815E+06
   6941      1     40    155       34.60          0.1815E+06
   6942      1     40    156       30.60          0.1815E+06
   6943      1     40    157       30.10          0.1815E+06
   6944      1     40    158       29.00          0.1815E+06
   6945      1     40    159       26.30          0.1815E+06
   6946      1     40    160       23.40          0.1815E+06
   6947      1     40    161       23.50          0.1815E+06
   6948      1     40    162       24.50          0.1815E+06
   6949      1     40    163       24.70          0.1815E+06
   6950      1     40    164       23.20          0.1815E+06
   6951      1     40    165       22.00          0.1815E+06
   6952      1     40    166       21.10          0.1815E+06
   6953      1     40    167       19.70          0.1815E+06
   6954      1     40    168       19.50          0.1815E+06
   6955      1     40    169       19.60          0.1815E+06
   6956      1     40    170       19.30          0.1815E+06
   6957      1     40    171       20.80          0.1815E+06
   6958      1     40    172       25.40          0.1815E+06
   6959      1     40    173       30.50          0.1815E+06
   6960      1     40    174       32.50          0.1815E+06
   6961      1     41      1      -3.730          0.1815E+06
   6962      1     41      2      -3.630          0.1815E+06
   6963      1     41      3      -3.630          0.1815E+06
   6964      1     41      4      -3.430          0.1815E+06
   6965      1     41      5      -3.130          0.1815E+06
   6966      1     41      6      -3.200          0.1815E+06
   6967      1     41      7      -2.820          0.1815E+06
   6968      1     41      8      -2.320          0.1815E+06
   6969      1     41      9      -2.320          0.1815E+06
   6970      1     41     10      -2.120          0.1815E+06
   6971      1     41     11      -2.120          0.1815E+06
   6972      1     41     12      0.4100          0.1815E+06
   6973      1     41     13       1.420          0.1815E+06
   6974      1     41     14       2.420          0.1815E+06
   6975      1     41     15       2.420          0.1815E+06
   6976      1     41     16       3.420          0.1815E+06
   6977      1     41     17       5.420          0.1815E+06
   6978      1     41     18       6.930          0.1815E+06
   6979      1     41     19       10.39          0.1815E+06
   6980      1     41     20       8.670          0.1815E+06
   6981      1     41     21       9.810          0.1815E+06
   6982      1     41     22       11.06          0.1815E+06
   6983      1     41     23       9.640          0.1815E+06
   6984      1     41     24       9.840          0.1815E+06
   6985      1     41     25       10.27          0.1815E+06
   6986      1     41     26       10.71          0.1815E+06
   6987      1     41     27       11.31          0.1815E+06
   6988      1     41     28       12.35          0.1815E+06
   6989      1     41     29       12.05          0.1815E+06
   6990      1     41     30       12.68          0.1815E+06
   6991      1     41     31       13.02          0.1815E+06
   6992      1     41     32       13.89          0.1815E+06
   6993      1     41     33       14.01          0.1815E+06
   6994      1     41     34       13.64          0.1815E+06
   6995      1     41     35       14.00          0.1815E+06
   6996      1     41     36       14.26          0.1815E+06
   6997      1     41     37       14.61          0.1815E+06
   6998      1     41     38       14.72          0.1815E+06
   6999      1     41     39       15.09          0.1815E+06
   7000      1     41     40       15.31          0.1815E+06
   7001      1     41     41       15.22          0.1815E+06
   7002      1     41     42       16.36          0.1815E+06
   7003      1     41     43       15.77          0.1815E+06
   7004      1     41     44       15.92          0.1815E+06
   7005      1     41     45       16.30          0.1815E+06
   7006      1     41     46       16.34          0.1815E+06
   7007      1     41     47       16.52          0.1815E+06
   7008      1     41     48       16.39          0.1815E+06
   7009      1     41     49       16.22          0.1815E+06
   7010      1     41     50       16.12          0.1815E+06
   7011      1     41     51       16.10          0.1815E+06
   7012      1     41     52       16.50          0.1815E+06
   7013      1     41     53       16.60          0.1815E+06
   7014      1     41     54       16.60          0.1815E+06
   7015      1     41     55       17.40          0.1815E+06
   7016      1     41     56       18.70          0.1815E+06
   7017      1     41     57       19.40          0.1815E+06
   7018      1     41     58       19.30          0.1815E+06
   7019      1     41     59       19.50          0.1815E+06
   7020      1     41     60       17.30          0.1815E+06
   7021      1     41     61       16.00          0.1815E+06
   7022      1     41     62       14.90          0.1815E+06
   7023      1     41     63       14.20          0.1815E+06
   7024      1     41     64       14.30          0.1815E+06
   7025      1     41     65       15.80          0.1815E+06
   7026      1     41     66       16.10          0.1815E+06
   7027      1     41     67       15.60          0.1815E+06
   7028      1     41     68       17.30          0.1815E+06
   7029      1     41     69       18.40          0.1815E+06
   7030      1     41     70       20.90          0.1815E+06
   7031      1     41     71       24.90          0.1815E+06
   7032      1     41     72       25.00          0.1815E+06
   7033      1     41     73       21.80          0.1815E+06
   7034      1     41     74       16.40          0.1815E+06
   7035      1     41     75       15.20          0.1815E+06
   7036      1     41     76       21.00          0.1815E+06
   7037      1     41     77       26.90          0.1815E+06
   7038      1     41     78       32.00          0.1815E+06
   7039      1     41     79       34.90          0.1815E+06
   7040      1     41     80       36.40          0.1815E+06
   7041      1     41     81       36.60          0.1815E+06
   7042      1     41     82       36.30          0.1815E+06
   7043      1     41     83       37.50          0.1815E+06
   7044      1     41     84       38.80          0.1815E+06
   7045      1     41     85       39.00          0.1815E+06
   7046      1     41     86       38.30          0.1815E+06
   7047      1     41     87       38.00          0.1815E+06
   7048      1     41     88       37.10          0.1815E+06
   7049      1     41     89       37.10          0.1815E+06
   7050      1     41     90       36.40          0.1815E+06
   7051      1     41     91       35.30          0.1815E+06
   7052      1     41     92       34.90          0.1815E+06
   7053      1     41     93       34.90          0.1815E+06
   7054      1     41     94       35.20          0.1815E+06
   7055      1     41     95       35.00          0.1815E+06
   7056      1     41     96       33.80          0.1815E+06
   7057      1     41     97       32.20          0.1815E+06
   7058      1     41     98       30.20          0.1815E+06
   7059      1     41     99       29.60          0.1815E+06
   7060      1     41    100       30.50          0.1815E+06
   7061      1     41    101       30.90          0.1815E+06
   7062      1     41    102       30.20          0.1815E+06
   7063      1     41    103       29.40          0.1815E+06
   7064      1     41    104       30.80          0.1815E+06
   7065      1     41    105       32.20          0.1815E+06
   7066      1     41    106       33.30          0.1815E+06
   7067      1     41    107       33.70          0.1815E+06
   7068      1     41    108       34.10          0.1815E+06
   7069      1     41    109       34.80          0.1815E+06
   7070      1     41    110       35.50          0.1815E+06
   7071      1     41    111       35.10          0.1815E+06
   7072      1     41    112       33.70          0.1815E+06
   7073      1     41    113       32.00          0.1815E+06
   7074      1     41    114       28.40          0.1815E+06
   7075      1     41    115       31.10          0.1815E+06
   7076      1     41    116       33.70          0.1815E+06
   7077      1     41    117       34.00          0.1815E+06
   7078      1     41    118       33.30          0.1815E+06
   7079      1     41    119       32.40          0.1815E+06
   7080      1     41    120       30.60          0.1815E+06
   7081      1     41    121       27.80          0.1815E+06
   7082      1     41    122       27.90          0.1815E+06
   7083      1     41    123       25.80          0.1815E+06
   7084      1     41    124       24.00          0.1815E+06
   7085      1     41    125       23.20          0.1815E+06
   7086      1     41    126       23.30          0.1815E+06
   7087      1     41    127       24.00          0.1815E+06
   7088      1     41    128       25.50          0.1815E+06
   7089      1     41    129       27.40          0.1815E+06
   7090      1     41    130       30.80          0.1815E+06
   7091      1     41    131       34.30          0.1815E+06
   7092      1     41    132       36.90          0.1815E+06
   7093      1     41    133       38.90          0.1815E+06
   7094      1     41    134       40.30          0.1815E+06
   7095      1     41    135       40.40          0.1815E+06
   7096      1     41    136       39.50          0.1815E+06
   7097      1     41    137       39.50          0.1815E+06
   7098      1     41    138       40.20          0.1815E+06
   7099      1     41    139       40.50          0.1815E+06
   7100      1     41    140       40.00          0.1815E+06
   7101      1     41    141       39.60          0.1815E+06
   7102      1     41    142       39.60          0.1815E+06
   7103      1     41    143       38.90          0.1815E+06
   7104      1     41    144       36.70          0.1815E+06
   7105      1     41    145       34.10          0.1815E+06
   7106      1     41    146       31.20          0.1815E+06
   7107      1     41    147       32.50          0.1815E+06
   7108      1     41    148       33.50          0.1815E+06
   7109      1     41    149       34.70          0.1815E+06
   7110      1     41    150       35.30          0.1815E+06
   7111      1     41    151       34.10          0.1815E+06
   7112      1     41    152       34.50          0.1815E+06
   7113      1     41    153       35.40          0.1815E+06
   7114      1     41    154       34.40          0.1815E+06
   7115      1     41    155       31.40          0.1815E+06
   7116      1     41    156       26.10          0.1815E+06
   7117      1     41    157       25.00          0.1815E+06
   7118      1     41    158       23.90          0.1815E+06
   7119      1     41    159       22.50          0.1815E+06
   7120      1     41    160       22.60          0.1815E+06
   7121      1     41    161       25.20          0.1815E+06
   7122      1     41    162       25.20          0.1815E+06
   7123      1     41    163       24.60          0.1815E+06
   7124      1     41    164       23.20          0.1815E+06
   7125      1     41    165       22.10          0.1815E+06
   7126      1     41    166       21.20          0.1815E+06
   7127      1     41    167       20.10          0.1815E+06
   7128      1     41    168       19.30          0.1815E+06
   7129      1     41    169       19.80          0.1815E+06
   7130      1     41    170       21.90          0.1815E+06
   7131      1     41    171       24.70          0.1815E+06
   7132      1     41    172       28.10          0.1815E+06
   7133      1     41    173       30.90          0.1815E+06
   7134      1     41    174       32.20          0.1815E+06
   7135      1     42      1      -4.330          0.1815E+06
   7136      1     42      2      -3.630          0.1815E+06
   7137      1     42      3      -3.630          0.1815E+06
   7138      1     42      4      -3.430          0.1815E+06
   7139      1     42      5      -3.230          0.1815E+06
   7140      1     42      6      -3.200          0.1815E+06
   7141      1     42      7      -3.170          0.1815E+06
   7142      1     42      8      -2.860          0.1815E+06
   7143      1     42      9      -2.860          0.1815E+06
   7144      1     42     10      -2.930          0.1815E+06
   7145      1     42     11      -1.890          0.1815E+06
   7146      1     42     12      0.4200          0.1815E+06
   7147      1     42     13      0.4200          0.1815E+06
   7148      1     42     14       1.420          0.1815E+06
   7149      1     42     15       1.420          0.1815E+06
   7150      1     42     16       3.430          0.1815E+06
   7151      1     42     17       4.430          0.1815E+06
   7152      1     42     18       5.430          0.1815E+06
   7153      1     42     19       11.94          0.1815E+06
   7154      1     42     20       9.050          0.1815E+06
   7155      1     42     21       9.100          0.1815E+06
   7156      1     42     22       9.100          0.1815E+06
   7157      1     42     23       9.930          0.1815E+06
   7158      1     42     24       9.510          0.1815E+06
   7159      1     42     25       9.860          0.1815E+06
   7160      1     42     26       10.76          0.1815E+06
   7161      1     42     27       11.18          0.1815E+06
   7162      1     42     28       11.77          0.1815E+06
   7163      1     42     29       12.25          0.1815E+06
   7164      1     42     30       12.60          0.1815E+06
   7165      1     42     31       13.11          0.1815E+06
   7166      1     42     32       13.22          0.1815E+06
   7167      1     42     33       13.21          0.1815E+06
   7168      1     42     34       13.51          0.1815E+06
   7169      1     42     35       13.97          0.1815E+06
   7170      1     42     36       14.05          0.1815E+06
   7171      1     42     37       14.31          0.1815E+06
   7172      1     42     38       15.21          0.1815E+06
   7173      1     42     39       14.53          0.1815E+06
   7174      1     42     40       15.06          0.1815E+06
   7175      1     42     41       15.05          0.1815E+06
   7176      1     42     42       15.14          0.1815E+06
   7177      1     42     43       15.61          0.1815E+06
   7178      1     42     44       15.81          0.1815E+06
   7179      1     42     45       15.84          0.1815E+06
   7180      1     42     46       15.97          0.1815E+06
   7181      1     42     47       16.13          0.1815E+06
   7182      1     42     48       15.40          0.1815E+06
   7183      1     42     49       15.80          0.1815E+06
   7184      1     42     50       16.00          0.1815E+06
   7185      1     42     51       16.10          0.1815E+06
   7186      1     42     52       16.30          0.1815E+06
   7187      1     42     53       16.20          0.1815E+06
   7188      1     42     54       16.10          0.1815E+06
   7189      1     42     55       16.70          0.1815E+06
   7190      1     42     56       17.70          0.1815E+06
   7191      1     42     57       17.70          0.1815E+06
   7192      1     42     58       17.50          0.1815E+06
   7193      1     42     59       18.00          0.1815E+06
   7194      1     42     60       18.10          0.1815E+06
   7195      1     42     61       16.60          0.1815E+06
   7196      1     42     62       15.70          0.1815E+06
   7197      1     42     63       14.10          0.1815E+06
   7198      1     42     64       13.60          0.1815E+06
   7199      1     42     65       14.70          0.1815E+06
   7200      1     42     66       14.80          0.1815E+06
   7201      1     42     67       13.90          0.1815E+06
   7202      1     42     68       14.90          0.1815E+06
   7203      1     42     69       15.80          0.1815E+06
   7204      1     42     70       16.60          0.1815E+06
   7205      1     42     71       17.60          0.1815E+06
   7206      1     42     72       18.40          0.1815E+06
   7207      1     42     73       17.10          0.1815E+06
   7208      1     42     74       14.90          0.1815E+06
   7209      1     42     75       16.80          0.1815E+06
   7210      1     42     76       22.40          0.1815E+06
   7211      1     42     77       28.50          0.1815E+06
   7212      1     42     78       35.70          0.1815E+06
   7213      1     42     79       37.40          0.1815E+06
   7214      1     42     80       37.70          0.1815E+06
   7215      1     42     81       37.40          0.1815E+06
   7216      1     42     82       37.60          0.1815E+06
   7217      1     42     83       38.20          0.1815E+06
   7218      1     42     84       38.50          0.1815E+06
   7219      1     42     85       38.60          0.1815E+06
   7220      1     42     86       38.50          0.1815E+06
   7221      1     42     87       38.40          0.1815E+06
   7222      1     42     88       37.80          0.1815E+06
   7223      1     42     89       38.00          0.1815E+06
   7224      1     42     90       37.80          0.1815E+06
   7225      1     42     91       36.90          0.1815E+06
   7226      1     42     92       36.50          0.1815E+06
   7227      1     42     93       36.50          0.1815E+06
   7228      1     42     94       36.60          0.1815E+06
   7229      1     42     95       36.50          0.1815E+06
   7230      1     42     96       35.10          0.1815E+06
   7231      1     42     97       32.70          0.1815E+06
   7232      1     42     98       31.20          0.1815E+06
   7233      1     42     99       31.20          0.1815E+06
   7234      1     42    100       31.70          0.1815E+06
   7235      1     42    101       31.20          0.1815E+06
   7236      1     42    102       30.00          0.1815E+06
   7237      1     42    103       30.00          0.1815E+06
   7238      1     42    104       30.60          0.1815E+06
   7239      1     42    105       32.80          0.1815E+06
   7240      1     42    106       34.00          0.1815E+06
   7241      1     42    107       34.60          0.1815E+06
   7242      1     42    108       34.80          0.1815E+06
   7243      1     42    109       35.50          0.1815E+06
   7244      1     42    110       36.30          0.1815E+06
   7245      1     42    111       36.50          0.1815E+06
   7246      1     42    112       35.00          0.1815E+06
   7247      1     42    113       33.30          0.1815E+06
   7248      1     42    114       30.00          0.1815E+06
   7249      1     42    115       33.00          0.1815E+06
   7250      1     42    116       35.90          0.1815E+06
   7251      1     42    117       35.80          0.1815E+06
   7252      1     42    118       35.60          0.1815E+06
   7253      1     42    119       34.70          0.1815E+06
   7254      1     42    120       31.60          0.1815E+06
   7255      1     42    121       31.10          0.1815E+06
   7256      1     42    122       31.10          0.1815E+06
   7257      1     42    123       29.90          0.1815E+06
   7258      1     42    124       27.50          0.1815E+06
   7259      1     42    125       24.60          0.1815E+06
   7260      1     42    126       24.20          0.1815E+06
   7261      1     42    127       24.70          0.1815E+06
   7262      1     42    128       25.90          0.1815E+06
   7263      1     42    129       27.90          0.1815E+06
   7264      1     42    130       31.30          0.1815E+06
   7265      1     42    131       35.30          0.1815E+06
   7266      1     42    132       37.20          0.1815E+06
   7267      1     42    133       38.80          0.1815E+06
   7268      1     42    134       39.60          0.1815E+06
   7269      1     42    135       39.30          0.1815E+06
   7270      1     42    136       38.40          0.1815E+06
   7271      1     42    137       38.30          0.1815E+06
   7272      1     42    138       39.00          0.1815E+06
   7273      1     42    139       39.30          0.1815E+06
   7274      1     42    140       38.80          0.1815E+06
   7275      1     42    141       38.20          0.1815E+06
   7276      1     42    142       37.90          0.1815E+06
   7277      1     42    143       37.60          0.1815E+06
   7278      1     42    144       36.30          0.1815E+06
   7279      1     42    145       33.30          0.1815E+06
   7280      1     42    146       29.80          0.1815E+06
   7281      1     42    147       30.00          0.1815E+06
   7282      1     42    148       31.20          0.1815E+06
   7283      1     42    149       31.90          0.1815E+06
   7284      1     42    150       32.70          0.1815E+06
   7285      1     42    151       32.20          0.1815E+06
   7286      1     42    152       30.90          0.1815E+06
   7287      1     42    153       30.50          0.1815E+06
   7288      1     42    154       29.50          0.1815E+06
   7289      1     42    155       27.40          0.1815E+06
   7290      1     42    156       24.80          0.1815E+06
   7291      1     42    157       22.70          0.1815E+06
   7292      1     42    158       21.90          0.1815E+06
   7293      1     42    159       21.90          0.1815E+06
   7294      1     42    160       23.70          0.1815E+06
   7295      1     42    161       25.80          0.1815E+06
   7296      1     42    162       25.00          0.1815E+06
   7297      1     42    163       23.90          0.1815E+06
   7298      1     42    164       22.90          0.1815E+06
   7299      1     42    165       21.90          0.1815E+06
   7300      1     42    166       21.20          0.1815E+06
   7301      1     42    167       20.60          0.1815E+06
   7302      1     42    168       20.80          0.1815E+06
   7303      1     42    169       23.40          0.1815E+06
   7304      1     42    170       26.60          0.1815E+06
   7305      1     42    171       29.00          0.1815E+06
   7306      1     42    172       30.60          0.1815E+06
   7307      1     42    173       31.20          0.1815E+06
   7308      1     42    174       31.80          0.1815E+06
   7309      1     43      1      -4.330          0.1815E+06
   7310      1     43      2      -3.630          0.1815E+06
   7311      1     43      3      -3.630          0.1815E+06
   7312      1     43      4      -3.430          0.1815E+06
   7313      1     43      5      -3.230          0.1815E+06
   7314      1     43      6      -3.200          0.1815E+06
   7315      1     43      7      -3.170          0.1815E+06
   7316      1     43      8      -2.860          0.1815E+06
   7317      1     43      9      -2.860          0.1815E+06
   7318      1     43     10      -2.930          0.1815E+06
   7319      1     43     11      -1.890          0.1815E+06
   7320      1     43     12      0.4200          0.1815E+06
   7321      1     43     13      0.4200          0.1815E+06
   7322      1     43     14       1.420          0.1815E+06
   7323      1     43     15       1.420          0.1815E+06
   7324      1     43     16       3.430          0.1815E+06
   7325      1     43     17       4.430          0.1815E+06
   7326      1     43     18       5.430          0.1815E+06
   7327      1     43     19       9.320          0.1815E+06
   7328      1     43     20       8.600          0.1815E+06
   7329      1     43     21       7.690          0.1815E+06
   7330      1     43     22       8.930          0.1815E+06
   7331      1     43     23       8.690          0.1815E+06
   7332      1     43     24       9.180          0.1815E+06
   7333      1     43     25       9.630          0.1815E+06
   7334      1     43     26       10.90          0.1815E+06
   7335      1     43     27       12.30          0.1815E+06
   7336      1     43     28       12.44          0.1815E+06
   7337      1     43     29       12.47          0.1815E+06
   7338      1     43     30       12.21          0.1815E+06
   7339      1     43     31       12.47          0.1815E+06
   7340      1     43     32       13.25          0.1815E+06
   7341      1     43     33       13.40          0.1815E+06
   7342      1     43     34       13.44          0.1815E+06
   7343      1     43     35       13.89          0.1815E+06
   7344      1     43     36       14.01          0.1815E+06
   7345      1     43     37       14.21          0.1815E+06
   7346      1     43     38       15.52          0.1815E+06
   7347      1     43     39       14.48          0.1815E+06
   7348      1     43     40       14.57          0.1815E+06
   7349      1     43     41       15.18          0.1815E+06
   7350      1     43     42       14.92          0.1815E+06
   7351      1     43     43       15.53          0.1815E+06
   7352      1     43     44       15.59          0.1815E+06
   7353      1     43     45       15.82          0.1815E+06
   7354      1     43     46       16.70          0.1815E+06
   7355      1     43     47       16.12          0.1815E+06
   7356      1     43     48       14.70          0.1815E+06
   7357      1     43     49       15.20          0.1815E+06
   7358      1     43     50       15.90          0.1815E+06
   7359      1     43     51       15.90          0.1815E+06
   7360      1     43     52       15.70          0.1815E+06
   7361      1     43     53       15.10          0.1815E+06
   7362      1     43     54       15.00          0.1815E+06
   7363      1     43     55       15.40          0.1815E+06
   7364      1     43     56       16.10          0.1815E+06
   7365      1     43     57       16.60          0.1815E+06
   7366      1     43     58       16.70          0.1815E+06
   7367      1     43     59       17.50          0.1815E+06
   7368      1     43     60       18.10          0.1815E+06
   7369      1     43     61       16.80          0.1815E+06
   7370      1     43     62       15.10          0.1815E+06
   7371      1     43     63       13.80          0.1815E+06
   7372      1     43     64       13.20          0.1815E+06
   7373      1     43     65       13.40          0.1815E+06
   7374      1     43     66       13.50          0.1815E+06
   7375      1     43     67       13.50          0.1815E+06
   7376      1     43     68       13.60          0.1815E+06
   7377      1     43     69       14.00          0.1815E+06
   7378      1     43     70       13.70          0.1815E+06
   7379      1     43     71       13.00          0.1815E+06
   7380      1     43     72       13.60          0.1815E+06
   7381      1     43     73       14.30          0.1815E+06
   7382      1     43     74       15.60          0.1815E+06
   7383      1     43     75       19.00          0.1815E+06
   7384      1     43     76       24.30          0.1815E+06
   7385      1     43     77       29.50          0.1815E+06
   7386      1     43     78       33.80          0.1815E+06
   7387      1     43     79       36.50          0.1815E+06
   7388      1     43     80       37.50          0.1815E+06
   7389      1     43     81       37.50          0.1815E+06
   7390      1     43     82       38.00          0.1815E+06
   7391      1     43     83       38.20          0.1815E+06
   7392      1     43     84       38.10          0.1815E+06
   7393      1     43     85       38.20          0.1815E+06
   7394      1     43     86       38.60          0.1815E+06
   7395      1     43     87       38.70          0.1815E+06
   7396      1     43     88       38.60          0.1815E+06
   7397      1     43     89       38.50          0.1815E+06
   7398      1     43     90       38.60          0.1815E+06
   7399      1     43     91       38.30          0.1815E+06
   7400      1     43     92       38.00          0.1815E+06
   7401      1     43     93       37.60          0.1815E+06
   7402      1     43     94       37.50          0.1815E+06
   7403      1     43     95       37.10          0.1815E+06
   7404      1     43     96       35.70          0.1815E+06
   7405      1     43     97       33.50          0.1815E+06
   7406      1     43     98       32.90          0.1815E+06
   7407      1     43     99       33.30          0.1815E+06
   7408      1     43    100       33.20          0.1815E+06
   7409      1     43    101       31.50          0.1815E+06
   7410      1     43    102       30.50          0.1815E+06
   7411      1     43    103       32.30          0.1815E+06
   7412      1     43    104       33.90          0.1815E+06
   7413      1     43    105       34.30          0.1815E+06
   7414      1     43    106       35.00          0.1815E+06
   7415      1     43    107       35.30          0.1815E+06
   7416      1     43    108       35.60          0.1815E+06
   7417      1     43    109       35.70          0.1815E+06
   7418      1     43    110       36.10          0.1815E+06
   7419      1     43    111       36.60          0.1815E+06
   7420      1     43    112       36.80          0.1815E+06
   7421      1     43    113       35.50          0.1815E+06
   7422      1     43    114       32.50          0.1815E+06
   7423      1     43    115       32.80          0.1815E+06
   7424      1     43    116       35.30          0.1815E+06
   7425      1     43    117       36.70          0.1815E+06
   7426      1     43    118       36.70          0.1815E+06
   7427      1     43    119       36.30          0.1815E+06
   7428      1     43    120       34.90          0.1815E+06
   7429      1     43    121       34.30          0.1815E+06
   7430      1     43    122       35.00          0.1815E+06
   7431      1     43    123       33.40          0.1815E+06
   7432      1     43    124       30.50          0.1815E+06
   7433      1     43    125       25.00          0.1815E+06
   7434      1     43    126       26.60          0.1815E+06
   7435      1     43    127       27.70          0.1815E+06
   7436      1     43    128       29.00          0.1815E+06
   7437      1     43    129       29.20          0.1815E+06
   7438      1     43    130       32.20          0.1815E+06
   7439      1     43    131       35.80          0.1815E+06
   7440      1     43    132       37.10          0.1815E+06
   7441      1     43    133       38.20          0.1815E+06
   7442      1     43    134       38.60          0.1815E+06
   7443      1     43    135       38.00          0.1815E+06
   7444      1     43    136       37.30          0.1815E+06
   7445      1     43    137       37.30          0.1815E+06
   7446      1     43    138       38.00          0.1815E+06
   7447      1     43    139       38.10          0.1815E+06
   7448      1     43    140       37.40          0.1815E+06
   7449      1     43    141       36.80          0.1815E+06
   7450      1     43    142       36.50          0.1815E+06
   7451      1     43    143       35.90          0.1815E+06
   7452      1     43    144       35.60          0.1815E+06
   7453      1     43    145       32.50          0.1815E+06
   7454      1     43    146       29.20          0.1815E+06
   7455      1     43    147       27.60          0.1815E+06
   7456      1     43    148       28.40          0.1815E+06
   7457      1     43    149       30.20          0.1815E+06
   7458      1     43    150       31.00          0.1815E+06
   7459      1     43    151       30.30          0.1815E+06
   7460      1     43    152       28.10          0.1815E+06
   7461      1     43    153       25.20          0.1815E+06
   7462      1     43    154       24.30          0.1815E+06
   7463      1     43    155       24.10          0.1815E+06
   7464      1     43    156       23.30          0.1815E+06
   7465      1     43    157       22.30          0.1815E+06
   7466      1     43    158       22.40          0.1815E+06
   7467      1     43    159       23.70          0.1815E+06
   7468      1     43    160       25.10          0.1815E+06
   7469      1     43    161       26.00          0.1815E+06
   7470      1     43    162       25.00          0.1815E+06
   7471      1     43    163       23.60          0.1815E+06
   7472      1     43    164       22.30          0.1815E+06
   7473      1     43    165       21.70          0.1815E+06
   7474      1     43    166       21.30          0.1815E+06
   7475      1     43    167       21.60          0.1815E+06
   7476      1     43    168       23.40          0.1815E+06
   7477      1     43    169       25.80          0.1815E+06
   7478      1     43    170       28.10          0.1815E+06
   7479      1     43    171       29.60          0.1815E+06
   7480      1     43    172       30.10          0.1815E+06
   7481      1     43    173       30.20          0.1815E+06
   7482      1     43    174       30.20          0.1815E+06
   7483      1     44      1      -4.330          0.1815E+06
   7484      1     44      2      -4.140          0.1815E+06
   7485      1     44      3      -4.140          0.1815E+06
   7486      1     44      4      -3.830          0.1815E+06
   7487      1     44      5      -3.870          0.1815E+06
   7488      1     44      6      -3.540          0.1815E+06
   7489      1     44      7      -3.530          0.1815E+06
   7490      1     44      8      -3.130          0.1815E+06
   7491      1     44      9      -3.130          0.1815E+06
   7492      1     44     10      -3.210          0.1815E+06
   7493      1     44     11      -2.710          0.1815E+06
   7494      1     44     12      -1.390          0.1815E+06
   7495      1     44     13      0.4100          0.1815E+06
   7496      1     44     14       2.420          0.1815E+06
   7497      1     44     15       2.420          0.1815E+06
   7498      1     44     16       2.430          0.1815E+06
   7499      1     44     17       3.430          0.1815E+06
   7500      1     44     18       4.430          0.1815E+06
   7501      1     44     19       6.530          0.1815E+06
   7502      1     44     20       9.360          0.1815E+06
   7503      1     44     21       7.730          0.1815E+06
   7504      1     44     22       8.600          0.1815E+06
   7505      1     44     23       8.640          0.1815E+06
   7506      1     44     24       8.630          0.1815E+06
   7507      1     44     25       10.48          0.1815E+06
   7508      1     44     26       10.88          0.1815E+06
   7509      1     44     27       11.25          0.1815E+06
   7510      1     44     28       11.38          0.1815E+06
   7511      1     44     29       12.07          0.1815E+06
   7512      1     44     30       12.03          0.1815E+06
   7513      1     44     31       12.38          0.1815E+06
   7514      1     44     32       13.18          0.1815E+06
   7515      1     44     33       12.97          0.1815E+06
   7516      1     44     34       13.56          0.1815E+06
   7517      1     44     35       13.77          0.1815E+06
   7518      1     44     36       13.80          0.1815E+06
   7519      1     44     37       14.02          0.1815E+06
   7520      1     44     38       13.98          0.1815E+06
   7521      1     44     39       14.39          0.1815E+06
   7522      1     44     40       14.52          0.1815E+06
   7523      1     44     41       14.23          0.1815E+06
   7524      1     44     42       14.46          0.1815E+06
   7525      1     44     43       14.56          0.1815E+06
   7526      1     44     44       14.92          0.1815E+06
   7527      1     44     45       15.26          0.1815E+06
   7528      1     44     46       15.18          0.1815E+06
   7529      1     44     47       15.52          0.1815E+06
   7530      1     44     48       14.20          0.1815E+06
   7531      1     44     49       14.70          0.1815E+06
   7532      1     44     50       15.30          0.1815E+06
   7533      1     44     51       15.20          0.1815E+06
   7534      1     44     52       14.60          0.1815E+06
   7535      1     44     53       14.10          0.1815E+06
   7536      1     44     54       13.90          0.1815E+06
   7537      1     44     55       14.10          0.1815E+06
   7538      1     44     56       15.00          0.1815E+06
   7539      1     44     57       16.10          0.1815E+06
   7540      1     44     58       16.40          0.1815E+06
   7541      1     44     59       16.80          0.1815E+06
   7542      1     44     60       16.90          0.1815E+06
   7543      1     44     61       15.50          0.1815E+06
   7544      1     44     62       14.10          0.1815E+06
   7545      1     44     63       13.00          0.1815E+06
   7546      1     44     64       12.30          0.1815E+06
   7547      1     44     65       12.30          0.1815E+06
   7548      1     44     66       12.80          0.1815E+06
   7549      1     44     67       13.20          0.1815E+06
   7550      1     44     68       13.60          0.1815E+06
   7551      1     44     69       14.00          0.1815E+06
   7552      1     44     70       13.30          0.1815E+06
   7553      1     44     71       12.80          0.1815E+06
   7554      1     44     72       13.80          0.1815E+06
   7555      1     44     73       15.70          0.1815E+06
   7556      1     44     74       18.00          0.1815E+06
   7557      1     44     75       20.20          0.1815E+06
   7558      1     44     76       24.10          0.1815E+06
   7559      1     44     77       30.60          0.1815E+06
   7560      1     44     78       34.70          0.1815E+06
   7561      1     44     79       36.60          0.1815E+06
   7562      1     44     80       37.70          0.1815E+06
   7563      1     44     81       38.30          0.1815E+06
   7564      1     44     82       38.30          0.1815E+06
   7565      1     44     83       37.90          0.1815E+06
   7566      1     44     84       37.30          0.1815E+06
   7567      1     44     85       38.30          0.1815E+06
   7568      1     44     86       38.90          0.1815E+06
   7569      1     44     87       39.00          0.1815E+06
   7570      1     44     88       38.90          0.1815E+06
   7571      1     44     89       38.70          0.1815E+06
   7572      1     44     90       38.60          0.1815E+06
   7573      1     44     91       38.50          0.1815E+06
   7574      1     44     92       38.30          0.1815E+06
   7575      1     44     93       38.00          0.1815E+06
   7576      1     44     94       37.70          0.1815E+06
   7577      1     44     95       36.90          0.1815E+06
   7578      1     44     96       36.20          0.1815E+06
   7579      1     44     97       35.00          0.1815E+06
   7580      1     44     98       34.30          0.1815E+06
   7581      1     44     99       34.90          0.1815E+06
   7582      1     44    100       34.90          0.1815E+06
   7583      1     44    101       33.30          0.1815E+06
   7584      1     44    102       32.40          0.1815E+06
   7585      1     44    103       34.00          0.1815E+06
   7586      1     44    104       35.60          0.1815E+06
   7587      1     44    105       35.70          0.1815E+06
   7588      1     44    106       35.60          0.1815E+06
   7589      1     44    107       35.80          0.1815E+06
   7590      1     44    108       36.10          0.1815E+06
   7591      1     44    109       36.20          0.1815E+06
   7592      1     44    110       36.40          0.1815E+06
   7593      1     44    111       36.90          0.1815E+06
   7594      1     44    112       37.50          0.1815E+06
   7595      1     44    113       37.20          0.1815E+06
   7596      1     44    114       35.10          0.1815E+06
   7597      1     44    115       34.30          0.1815E+06
   7598      1     44    116       34.70          0.1815E+06
   7599      1     44    117       36.20          0.1815E+06
   7600      1     44    118       37.00          0.1815E+06
   7601      1     44    119       37.20          0.1815E+06
   7602      1     44    120       37.00          0.1815E+06
   7603      1     44    121       37.00          0.1815E+06
   7604      1     44    122       37.20          0.1815E+06
   7605      1     44    123       36.10          0.1815E+06
   7606      1     44    124       32.80          0.1815E+06
   7607      1     44    125       28.60          0.1815E+06
   7608      1     44    126       32.00          0.1815E+06
   7609      1     44    127       32.30          0.1815E+06
   7610      1     44    128       32.80          0.1815E+06
   7611      1     44    129       32.60          0.1815E+06
   7612      1     44    130       34.40          0.1815E+06
   7613      1     44    131       36.00          0.1815E+06
   7614      1     44    132       36.90          0.1815E+06
   7615      1     44    133       37.80          0.1815E+06
   7616      1     44    134       37.50          0.1815E+06
   7617      1     44    135       36.70          0.1815E+06
   7618      1     44    136       35.80          0.1815E+06
   7619      1     44    137       36.30          0.1815E+06
   7620      1     44    138       37.30          0.1815E+06
   7621      1     44    139       37.10          0.1815E+06
   7622      1     44    140       35.90          0.1815E+06
   7623      1     44    141       34.90          0.1815E+06
   7624      1     44    142       34.60          0.1815E+06
   7625      1     44    143       34.00          0.1815E+06
   7626      1     44    144       33.70          0.1815E+06
   7627      1     44    145       31.40          0.1815E+06
   7628      1     44    146       28.40          0.1815E+06
   7629      1     44    147       25.90          0.1815E+06
   7630      1     44    148       26.20          0.1815E+06
   7631      1     44    149       28.00          0.1815E+06
   7632      1     44    150       28.40          0.1815E+06
   7633      1     44    151       27.30          0.1815E+06
   7634      1     44    152       25.60          0.1815E+06
   7635      1     44    153       24.10          0.1815E+06
   7636      1     44    154       23.50          0.1815E+06
   7637      1     44    155       23.30          0.1815E+06
   7638      1     44    156       22.70          0.1815E+06
   7639      1     44    157       22.60          0.1815E+06
   7640      1     44    158       23.20          0.1815E+06
   7641      1     44    159       24.40          0.1815E+06
   7642      1     44    160       25.40          0.1815E+06
   7643      1     44    161       25.60          0.1815E+06
   7644      1     44    162       25.20          0.1815E+06
   7645      1     44    163       23.30          0.1815E+06
   7646      1     44    164       21.90          0.1815E+06
   7647      1     44    165       22.00          0.1815E+06
   7648      1     44    166       21.90          0.1815E+06
   7649      1     44    167       22.20          0.1815E+06
   7650      1     44    168       24.20          0.1815E+06
   7651      1     44    169       26.20          0.1815E+06
   7652      1     44    170       26.70          0.1815E+06
   7653      1     44    171       26.50          0.1815E+06
   7654      1     44    172       26.90          0.1815E+06
   7655      1     44    173       27.10          0.1815E+06
   7656      1     44    174       27.80          0.1815E+06
   7657      1     45      1      -4.940          0.1815E+06
   7658      1     45      2      -6.740          0.1815E+06
   7659      1     45      3      -6.740          0.1815E+06
   7660      1     45      4      -4.540          0.1815E+06
   7661      1     45      5      -4.540          0.1815E+06
   7662      1     45      6      -3.740          0.1815E+06
   7663      1     45      7      -3.810          0.1815E+06
   7664      1     45      8      -3.720          0.1815E+06
   7665      1     45      9      -3.720          0.1815E+06
   7666      1     45     10      -3.780          0.1815E+06
   7667      1     45     11      -3.730          0.1815E+06
   7668      1     45     12      -3.330          0.1815E+06
   7669      1     45     13      0.4200          0.1815E+06
   7670      1     45     14       1.420          0.1815E+06
   7671      1     45     15       1.420          0.1815E+06
   7672      1     45     16       2.420          0.1815E+06
   7673      1     45     17       2.430          0.1815E+06
   7674      1     45     18       4.430          0.1815E+06
   7675      1     45     19       5.380          0.1815E+06
   7676      1     45     20       10.26          0.1815E+06
   7677      1     45     21       7.940          0.1815E+06
   7678      1     45     22       8.480          0.1815E+06
   7679      1     45     23       9.470          0.1815E+06
   7680      1     45     24       8.050          0.1815E+06
   7681      1     45     25       10.11          0.1815E+06
   7682      1     45     26       10.35          0.1815E+06
   7683      1     45     27       10.89          0.1815E+06
   7684      1     45     28       11.09          0.1815E+06
   7685      1     45     29       11.64          0.1815E+06
   7686      1     45     30       12.35          0.1815E+06
   7687      1     45     31       12.14          0.1815E+06
   7688      1     45     32       12.52          0.1815E+06
   7689      1     45     33       13.09          0.1815E+06
   7690      1     45     34       13.06          0.1815E+06
   7691      1     45     35       13.51          0.1815E+06
   7692      1     45     36       13.69          0.1815E+06
   7693      1     45     37       13.43          0.1815E+06
   7694      1     45     38       13.69          0.1815E+06
   7695      1     45     39       13.97          0.1815E+06
   7696      1     45     40       13.85          0.1815E+06
   7697      1     45     41       13.65          0.1815E+06
   7698      1     45     42       14.19          0.1815E+06
   7699      1     45     43       14.09          0.1815E+06
   7700      1     45     44       14.27          0.1815E+06
   7701      1     45     45       14.61          0.1815E+06
   7702      1     45     46       14.51          0.1815E+06
   7703      1     45     47       14.27          0.1815E+06
   7704      1     45     48       13.93          0.1815E+06
   7705      1     45     49       13.90          0.1815E+06
   7706      1     45     50       14.20          0.1815E+06
   7707      1     45     51       14.10          0.1815E+06
   7708      1     45     52       13.60          0.1815E+06
   7709      1     45     53       13.10          0.1815E+06
   7710      1     45     54       12.90          0.1815E+06
   7711      1     45     55       13.30          0.1815E+06
   7712      1     45     56       14.30          0.1815E+06
   7713      1     45     57       15.30          0.1815E+06
   7714      1     45     58       15.20          0.1815E+06
   7715      1     45     59       15.20          0.1815E+06
   7716      1     45     60       15.10          0.1815E+06
   7717      1     45     61       14.20          0.1815E+06
   7718      1     45     62       13.10          0.1815E+06
   7719      1     45     63       11.90          0.1815E+06
   7720      1     45     64       11.30          0.1815E+06
   7721      1     45     65       11.60          0.1815E+06
   7722      1     45     66       12.90          0.1815E+06
   7723      1     45     67       13.90          0.1815E+06
   7724      1     45     68       14.90          0.1815E+06
   7725      1     45     69       15.50          0.1815E+06
   7726      1     45     70       15.90          0.1815E+06
   7727      1     45     71       16.30          0.1815E+06
   7728      1     45     72       17.90          0.1815E+06
   7729      1     45     73       19.70          0.1815E+06
   7730      1     45     74       21.40          0.1815E+06
   7731      1     45     75       23.30          0.1815E+06
   7732      1     45     76       25.60          0.1815E+06
   7733      1     45     77       31.00          0.1815E+06
   7734      1     45     78       33.70          0.1815E+06
   7735      1     45     79       35.30          0.1815E+06
   7736      1     45     80       36.50          0.1815E+06
   7737      1     45     81       37.40          0.1815E+06
   7738      1     45     82       36.60          0.1815E+06
   7739      1     45     83       36.80          0.1815E+06
   7740      1     45     84       37.30          0.1815E+06
   7741      1     45     85       38.20          0.1815E+06
   7742      1     45     86       38.90          0.1815E+06
   7743      1     45     87       39.00          0.1815E+06
   7744      1     45     88       38.90          0.1815E+06
   7745      1     45     89       38.60          0.1815E+06
   7746      1     45     90       38.50          0.1815E+06
   7747      1     45     91       38.50          0.1815E+06
   7748      1     45     92       38.40          0.1815E+06
   7749      1     45     93       37.80          0.1815E+06
   7750      1     45     94       37.20          0.1815E+06
   7751      1     45     95       36.40          0.1815E+06
   7752      1     45     96       35.70          0.1815E+06
   7753      1     45     97       35.30          0.1815E+06
   7754      1     45     98       35.30          0.1815E+06
   7755      1     45     99       35.70          0.1815E+06
   7756      1     45    100       35.30          0.1815E+06
   7757      1     45    101       34.30          0.1815E+06
   7758      1     45    102       33.90          0.1815E+06
   7759      1     45    103       34.10          0.1815E+06
   7760      1     45    104       35.50          0.1815E+06
   7761      1     45    105       36.00          0.1815E+06
   7762      1     45    106       36.00          0.1815E+06
   7763      1     45    107       36.20          0.1815E+06
   7764      1     45    108       36.60          0.1815E+06
   7765      1     45    109       36.70          0.1815E+06
   7766      1     45    110       36.90          0.1815E+06
   7767      1     45    111       37.10          0.1815E+06
   7768      1     45    112       37.80          0.1815E+06
   7769      1     45    113       38.00          0.1815E+06
   7770      1     45    114       36.90          0.1815E+06
   7771      1     45    115       35.60          0.1815E+06
   7772      1     45    116       36.00          0.1815E+06
   7773      1     45    117       36.50          0.1815E+06
   7774      1     45    118       37.60          0.1815E+06
   7775      1     45    119       38.60          0.1815E+06
   7776      1     45    120       39.20          0.1815E+06
   7777      1     45    121       38.80          0.1815E+06
   7778      1     45    122       38.10          0.1815E+06
   7779      1     45    123       37.20          0.1815E+06
   7780      1     45    124       33.40          0.1815E+06
   7781      1     45    125       33.20          0.1815E+06
   7782      1     45    126       36.40          0.1815E+06
   7783      1     45    127       35.80          0.1815E+06
   7784      1     45    128       36.20          0.1815E+06
   7785      1     45    129       35.80          0.1815E+06
   7786      1     45    130       35.90          0.1815E+06
   7787      1     45    131       36.00          0.1815E+06
   7788      1     45    132       36.60          0.1815E+06
   7789      1     45    133       37.30          0.1815E+06
   7790      1     45    134       36.90          0.1815E+06
   7791      1     45    135       35.10          0.1815E+06
   7792      1     45    136       34.20          0.1815E+06
   7793      1     45    137       35.00          0.1815E+06
   7794      1     45    138       36.50          0.1815E+06
   7795      1     45    139       36.30          0.1815E+06
   7796      1     45    140       34.80          0.1815E+06
   7797      1     45    141       33.50          0.1815E+06
   7798      1     45    142       32.20          0.1815E+06
   7799      1     45    143       30.60          0.1815E+06
   7800      1     45    144       31.40          0.1815E+06
   7801      1     45    145       30.10          0.1815E+06
   7802      1     45    146       27.50          0.1815E+06
   7803      1     45    147       25.30          0.1815E+06
   7804      1     45    148       24.40          0.1815E+06
   7805      1     45    149       25.70          0.1815E+06
   7806      1     45    150       25.50          0.1815E+06
   7807      1     45    151       24.60          0.1815E+06
   7808      1     45    152       24.20          0.1815E+06
   7809      1     45    153       23.90          0.1815E+06
   7810      1     45    154       23.50          0.1815E+06
   7811      1     45    155       23.10          0.1815E+06
   7812      1     45    156       22.80          0.1815E+06
   7813      1     45    157       22.80          0.1815E+06
   7814      1     45    158       23.20          0.1815E+06
   7815      1     45    159       24.00          0.1815E+06
   7816      1     45    160       24.50          0.1815E+06
   7817      1     45    161       24.10          0.1815E+06
   7818      1     45    162       24.10          0.1815E+06
   7819      1     45    163       22.80          0.1815E+06
   7820      1     45    164       22.30          0.1815E+06
   7821      1     45    165       22.70          0.1815E+06
   7822      1     45    166       22.70          0.1815E+06
   7823      1     45    167       22.60          0.1815E+06
   7824      1     45    168       23.40          0.1815E+06
   7825      1     45    169       24.40          0.1815E+06
   7826      1     45    170       24.60          0.1815E+06
   7827      1     45    171       24.40          0.1815E+06
   7828      1     45    172       24.50          0.1815E+06
   7829      1     45    173       24.50          0.1815E+06
   7830      1     45    174       25.20          0.1815E+06
   7831      1     46      1      -5.650          0.1815E+06
   7832      1     46      2      -7.250          0.1815E+06
   7833      1     46      3      -7.250          0.1815E+06
   7834      1     46      4      -6.150          0.1815E+06
   7835      1     46      5      -5.010          0.1815E+06
   7836      1     46      6      -4.660          0.1815E+06
   7837      1     46      7      -4.540          0.1815E+06
   7838      1     46      8      -4.410          0.1815E+06
   7839      1     46      9      -4.410          0.1815E+06
   7840      1     46     10      -3.940          0.1815E+06
   7841      1     46     11      -3.540          0.1815E+06
   7842      1     46     12      -2.870          0.1815E+06
   7843      1     46     13      0.4200          0.1815E+06
   7844      1     46     14       1.420          0.1815E+06
   7845      1     46     15       1.420          0.1815E+06
   7846      1     46     16       2.420          0.1815E+06
   7847      1     46     17       2.430          0.1815E+06
   7848      1     46     18       3.430          0.1815E+06
   7849      1     46     19       8.430          0.1815E+06
   7850      1     46     20       10.92          0.1815E+06
   7851      1     46     21       7.820          0.1815E+06
   7852      1     46     22       9.360          0.1815E+06
   7853      1     46     23       9.130          0.1815E+06
   7854      1     46     24       9.190          0.1815E+06
   7855      1     46     25       9.510          0.1815E+06
   7856      1     46     26       9.930          0.1815E+06
   7857      1     46     27       10.47          0.1815E+06
   7858      1     46     28       10.68          0.1815E+06
   7859      1     46     29       11.23          0.1815E+06
   7860      1     46     30       11.81          0.1815E+06
   7861      1     46     31       12.26          0.1815E+06
   7862      1     46     32       12.36          0.1815E+06
   7863      1     46     33       12.80          0.1815E+06
   7864      1     46     34       12.97          0.1815E+06
   7865      1     46     35       13.22          0.1815E+06
   7866      1     46     36       13.31          0.1815E+06
   7867      1     46     37       13.55          0.1815E+06
   7868      1     46     38       13.72          0.1815E+06
   7869      1     46     39       13.60          0.1815E+06
   7870      1     46     40       13.97          0.1815E+06
   7871      1     46     41       13.47          0.1815E+06
   7872      1     46     42       13.98          0.1815E+06
   7873      1     46     43       13.39          0.1815E+06
   7874      1     46     44       13.52          0.1815E+06
   7875      1     46     45       13.50          0.1815E+06
   7876      1     46     46       13.55          0.1815E+06
   7877      1     46     47       13.27          0.1815E+06
   7878      1     46     48       13.00          0.1815E+06
   7879      1     46     49       12.90          0.1815E+06
   7880      1     46     50       13.10          0.1815E+06
   7881      1     46     51       13.10          0.1815E+06
   7882      1     46     52       12.80          0.1815E+06
   7883      1     46     53       12.30          0.1815E+06
   7884      1     46     54       12.25          0.1815E+06
   7885      1     46     55       12.70          0.1815E+06
   7886      1     46     56       13.30          0.1815E+06
   7887      1     46     57       13.80          0.1815E+06
   7888      1     46     58       13.90          0.1815E+06
   7889      1     46     59       14.10          0.1815E+06
   7890      1     46     60       14.00          0.1815E+06
   7891      1     46     61       13.30          0.1815E+06
   7892      1     46     62       12.20          0.1815E+06
   7893      1     46     63       10.90          0.1815E+06
   7894      1     46     64       10.93          0.1815E+06
   7895      1     46     65       12.00          0.1815E+06
   7896      1     46     66       13.70          0.1815E+06
   7897      1     46     67       16.40          0.1815E+06
   7898      1     46     68       17.30          0.1815E+06
   7899      1     46     69       17.80          0.1815E+06
   7900      1     46     70       19.50          0.1815E+06
   7901      1     46     71       21.40          0.1815E+06
   7902      1     46     72       22.10          0.1815E+06
   7903      1     46     73       22.20          0.1815E+06
   7904      1     46     74       23.30          0.1815E+06
   7905      1     46     75       25.40          0.1815E+06
   7906      1     46     76       27.70          0.1815E+06
   7907      1     46     77       29.70          0.1815E+06
   7908      1     46     78       31.10          0.1815E+06
   7909      1     46     79       32.20          0.1815E+06
   7910      1     46     80       34.00          0.1815E+06
   7911      1     46     81       34.40          0.1815E+06
   7912      1     46     82       33.60          0.1815E+06
   7913      1     46     83       35.70          0.1815E+06
   7914      1     46     84       37.40          0.1815E+06
   7915      1     46     85       38.20          0.1815E+06
   7916      1     46     86       38.10          0.1815E+06
   7917      1     46     87       38.40          0.1815E+06
   7918      1     46     88       38.70          0.1815E+06
   7919      1     46     89       38.60          0.1815E+06
   7920      1     46     90       38.20          0.1815E+06
   7921      1     46     91       38.10          0.1815E+06
   7922      1     46     92       38.30          0.1815E+06
   7923      1     46     93       37.90          0.1815E+06
   7924      1     46     94       37.30          0.1815E+06
   7925      1     46     95       36.40          0.1815E+06
   7926      1     46     96       35.80          0.1815E+06
   7927      1     46     97       36.00          0.1815E+06
   7928      1     46     98       36.00          0.1815E+06
   7929      1     46     99       35.90          0.1815E+06
   7930      1     46    100       35.50          0.1815E+06
   7931      1     46    101       34.80          0.1815E+06
   7932      1     46    102       34.30          0.1815E+06
   7933      1     46    103       34.80          0.1815E+06
   7934      1     46    104       35.50          0.1815E+06
   7935      1     46    105       36.00          0.1815E+06
   7936      1     46    106       36.50          0.1815E+06
   7937      1     46    107       37.00          0.1815E+06
   7938      1     46    108       37.20          0.1815E+06
   7939      1     46    109       37.20          0.1815E+06
   7940      1     46    110       37.30          0.1815E+06
   7941      1     46    111       37.40          0.1815E+06
   7942      1     46    112       38.00          0.1815E+06
   7943      1     46    113       38.40          0.1815E+06
   7944      1     46    114       38.00          0.1815E+06
   7945      1     46    115       37.30          0.1815E+06
   7946      1     46    116       37.30          0.1815E+06
   7947      1     46    117       37.80          0.1815E+06
   7948      1     46    118       38.60          0.1815E+06
   7949      1     46    119       39.50          0.1815E+06
   7950      1     46    120       40.70          0.1815E+06
   7951      1     46    121       40.50          0.1815E+06
   7952      1     46    122       38.60          0.1815E+06
   7953      1     46    123       37.00          0.1815E+06
   7954      1     46    124       34.50          0.1815E+06
   7955      1     46    125       36.10          0.1815E+06
   7956      1     46    126       37.40          0.1815E+06
   7957      1     46    127       37.30          0.1815E+06
   7958      1     46    128       37.30          0.1815E+06
   7959      1     46    129       37.10          0.1815E+06
   7960      1     46    130       36.60          0.1815E+06
   7961      1     46    131       36.30          0.1815E+06
   7962      1     46    132       36.70          0.1815E+06
   7963      1     46    133       37.10          0.1815E+06
   7964      1     46    134       36.60          0.1815E+06
   7965      1     46    135       34.50          0.1815E+06
   7966      1     46    136       33.40          0.1815E+06
   7967      1     46    137       33.90          0.1815E+06
   7968      1     46    138       35.20          0.1815E+06
   7969      1     46    139       35.00          0.1815E+06
   7970      1     46    140       33.60          0.1815E+06
   7971      1     46    141       32.60          0.1815E+06
   7972      1     46    142       31.20          0.1815E+06
   7973      1     46    143       29.00          0.1815E+06
   7974      1     46    144       28.70          0.1815E+06
   7975      1     46    145       27.10          0.1815E+06
   7976      1     46    146       25.70          0.1815E+06
   7977      1     46    147       24.60          0.1815E+06
   7978      1     46    148       23.80          0.1815E+06
   7979      1     46    149       23.90          0.1815E+06
   7980      1     46    150       24.20          0.1815E+06
   7981      1     46    151       24.00          0.1815E+06
   7982      1     46    152       23.80          0.1815E+06
   7983      1     46    153       23.40          0.1815E+06
   7984      1     46    154       23.10          0.1815E+06
   7985      1     46    155       22.80          0.1815E+06
   7986      1     46    156       22.80          0.1815E+06
   7987      1     46    157       22.90          0.1815E+06
   7988      1     46    158       23.00          0.1815E+06
   7989      1     46    159       23.20          0.1815E+06
   7990      1     46    160       23.30          0.1815E+06
   7991      1     46    161       23.20          0.1815E+06
   7992      1     46    162       23.00          0.1815E+06
   7993      1     46    163       23.10          0.1815E+06
   7994      1     46    164       23.50          0.1815E+06
   7995      1     46    165       22.60          0.1815E+06
   7996      1     46    166       21.90          0.1815E+06
   7997      1     46    167       22.90          0.1815E+06
   7998      1     46    168       23.80          0.1815E+06
   7999      1     46    169       23.90          0.1815E+06
   8000      1     46    170       23.90          0.1815E+06
   8001      1     46    171       24.00          0.1815E+06
   8002      1     46    172       24.10          0.1815E+06
   8003      1     46    173       24.00          0.1815E+06
   8004      1     46    174       24.30          0.1815E+06
   8005      1     47      1      -6.750          0.1815E+06
   8006      1     47      2      -7.450          0.1815E+06
   8007      1     47      3      -7.450          0.1815E+06
   8008      1     47      4      -7.050          0.1815E+06
   8009      1     47      5      -6.120          0.1815E+06
   8010      1     47      6      -5.630          0.1815E+06
   8011      1     47      7      -5.250          0.1815E+06
   8012      1     47      8      -4.080          0.1815E+06
   8013      1     47      9      -4.080          0.1815E+06
   8014      1     47     10      -3.940          0.1815E+06
   8015      1     47     11      -3.540          0.1815E+06
   8016      1     47     12      -2.870          0.1815E+06
   8017      1     47     13      0.4100          0.1815E+06
   8018      1     47     14      0.4300          0.1815E+06
   8019      1     47     15      0.4300          0.1815E+06
   8020      1     47     16       1.430          0.1815E+06
   8021      1     47     17       2.430          0.1815E+06
   8022      1     47     18       2.430          0.1815E+06
   8023      1     47     19       5.930          0.1815E+06
   8024      1     47     20       6.300          0.1815E+06
   8025      1     47     21       8.520          0.1815E+06
   8026      1     47     22       9.150          0.1815E+06
   8027      1     47     23       8.220          0.1815E+06
   8028      1     47     24       8.820          0.1815E+06
   8029      1     47     25       8.760          0.1815E+06
   8030      1     47     26       8.960          0.1815E+06
   8031      1     47     27       9.400          0.1815E+06
   8032      1     47     28       10.78          0.1815E+06
   8033      1     47     29       10.98          0.1815E+06
   8034      1     47     30       11.76          0.1815E+06
   8035      1     47     31       12.06          0.1815E+06
   8036      1     47     32       12.19          0.1815E+06
   8037      1     47     33       12.56          0.1815E+06
   8038      1     47     34       12.72          0.1815E+06
   8039      1     47     35       13.06          0.1815E+06
   8040      1     47     36       13.10          0.1815E+06
   8041      1     47     37       13.18          0.1815E+06
   8042      1     47     38       13.27          0.1815E+06
   8043      1     47     39       13.68          0.1815E+06
   8044      1     47     40       14.15          0.1815E+06
   8045      1     47     41       13.22          0.1815E+06
   8046      1     47     42       13.17          0.1815E+06
   8047      1     47     43       13.00          0.1815E+06
   8048      1     47     44       12.86          0.1815E+06
   8049      1     47     45       12.72          0.1815E+06
   8050      1     47     46       12.76          0.1815E+06
   8051      1     47     47       12.26          0.1815E+06
   8052      1     47     48       12.81          0.1815E+06
   8053      1     47     49       12.00          0.1815E+06
   8054      1     47     50       12.00          0.1815E+06
   8055      1     47     51       12.00          0.1815E+06
   8056      1     47     52       11.80          0.1815E+06
   8057      1     47     53       10.49          0.1815E+06
   8058      1     47     54       9.770          0.1815E+06
   8059      1     47     55       11.84          0.1815E+06
   8060      1     47     56       12.50          0.1815E+06
   8061      1     47     57       12.70          0.1815E+06
   8062      1     47     58       13.00          0.1815E+06
   8063      1     47     59       13.20          0.1815E+06
   8064      1     47     60       13.10          0.1815E+06
   8065      1     47     61       12.50          0.1815E+06
   8066      1     47     62       11.50          0.1815E+06
   8067      1     47     63       9.630          0.1815E+06
   8068      1     47     64       11.48          0.1815E+06
   8069      1     47     65       14.20          0.1815E+06
   8070      1     47     66       15.80          0.1815E+06
   8071      1     47     67       18.20          0.1815E+06
   8072      1     47     68       19.10          0.1815E+06
   8073      1     47     69       19.70          0.1815E+06
   8074      1     47     70       21.20          0.1815E+06
   8075      1     47     71       23.10          0.1815E+06
   8076      1     47     72       23.20          0.1815E+06
   8077      1     47     73       23.00          0.1815E+06
   8078      1     47     74       23.70          0.1815E+06
   8079      1     47     75       25.50          0.1815E+06
   8080      1     47     76       27.30          0.1815E+06
   8081      1     47     77       28.20          0.1815E+06
   8082      1     47     78       27.60          0.1815E+06
   8083      1     47     79       27.90          0.1815E+06
   8084      1     47     80       29.80          0.1815E+06
   8085      1     47     81       29.70          0.1815E+06
   8086      1     47     82       30.90          0.1815E+06
   8087      1     47     83       34.80          0.1815E+06
   8088      1     47     84       36.10          0.1815E+06
   8089      1     47     85       36.20          0.1815E+06
   8090      1     47     86       35.90          0.1815E+06
   8091      1     47     87       36.80          0.1815E+06
   8092      1     47     88       37.70          0.1815E+06
   8093      1     47     89       38.10          0.1815E+06
   8094      1     47     90       38.00          0.1815E+06
   8095      1     47     91       37.20          0.1815E+06
   8096      1     47     92       38.20          0.1815E+06
   8097      1     47     93       37.70          0.1815E+06
   8098      1     47     94       36.80          0.1815E+06
   8099      1     47     95       36.50          0.1815E+06
   8100      1     47     96       36.50          0.1815E+06
   8101      1     47     97       36.50          0.1815E+06
   8102      1     47     98       36.10          0.1815E+06
   8103      1     47     99       35.80          0.1815E+06
   8104      1     47    100       35.90          0.1815E+06
   8105      1     47    101       34.10          0.1815E+06
   8106      1     47    102       33.20          0.1815E+06
   8107      1     47    103       35.10          0.1815E+06
   8108      1     47    104       35.80          0.1815E+06
   8109      1     47    105       36.50          0.1815E+06
   8110      1     47    106       37.10          0.1815E+06
   8111      1     47    107       37.40          0.1815E+06
   8112      1     47    108       37.50          0.1815E+06
   8113      1     47    109       37.40          0.1815E+06
   8114      1     47    110       37.60          0.1815E+06
   8115      1     47    111       37.90          0.1815E+06
   8116      1     47    112       38.30          0.1815E+06
   8117      1     47    113       38.70          0.1815E+06
   8118      1     47    114       38.70          0.1815E+06
   8119      1     47    115       38.60          0.1815E+06
   8120      1     47    116       38.70          0.1815E+06
   8121      1     47    117       39.30          0.1815E+06
   8122      1     47    118       39.70          0.1815E+06
   8123      1     47    119       40.30          0.1815E+06
   8124      1     47    120       40.80          0.1815E+06
   8125      1     47    121       40.70          0.1815E+06
   8126      1     47    122       38.70          0.1815E+06
   8127      1     47    123       36.60          0.1815E+06
   8128      1     47    124       34.80          0.1815E+06
   8129      1     47    125       35.70          0.1815E+06
   8130      1     47    126       37.50          0.1815E+06
   8131      1     47    127       38.50          0.1815E+06
   8132      1     47    128       38.50          0.1815E+06
   8133      1     47    129       38.00          0.1815E+06
   8134      1     47    130       37.40          0.1815E+06
   8135      1     47    131       37.00          0.1815E+06
   8136      1     47    132       37.00          0.1815E+06
   8137      1     47    133       37.00          0.1815E+06
   8138      1     47    134       36.10          0.1815E+06
   8139      1     47    135       34.10          0.1815E+06
   8140      1     47    136       32.80          0.1815E+06
   8141      1     47    137       32.80          0.1815E+06
   8142      1     47    138       33.40          0.1815E+06
   8143      1     47    139       33.10          0.1815E+06
   8144      1     47    140       31.70          0.1815E+06
   8145      1     47    141       31.10          0.1815E+06
   8146      1     47    142       30.70          0.1815E+06
   8147      1     47    143       27.40          0.1815E+06
   8148      1     47    144       25.00          0.1815E+06
   8149      1     47    145       24.60          0.1815E+06
   8150      1     47    146       24.40          0.1815E+06
   8151      1     47    147       24.30          0.1815E+06
   8152      1     47    148       23.90          0.1815E+06
   8153      1     47    149       23.70          0.1815E+06
   8154      1     47    150       23.70          0.1815E+06
   8155      1     47    151       23.70          0.1815E+06
   8156      1     47    152       23.60          0.1815E+06
   8157      1     47    153       23.00          0.1815E+06
   8158      1     47    154       22.40          0.1815E+06
   8159      1     47    155       22.10          0.1815E+06
   8160      1     47    156       22.40          0.1815E+06
   8161      1     47    157       23.00          0.1815E+06
   8162      1     47    158       23.50          0.1815E+06
   8163      1     47    159       23.70          0.1815E+06
   8164      1     47    160       23.70          0.1815E+06
   8165      1     47    161       23.70          0.1815E+06
   8166      1     47    162       23.60          0.1815E+06
   8167      1     47    163       23.90          0.1815E+06
   8168      1     47    164       24.10          0.1815E+06
   8169      1     47    165       22.70          0.1815E+06
   8170      1     47    166       21.60          0.1815E+06
   8171      1     47    167       23.20          0.1815E+06
   8172      1     47    168       24.30          0.1815E+06
   8173      1     47    169       24.60          0.1815E+06
   8174      1     47    170       25.30          0.1815E+06
   8175      1     47    171       25.40          0.1815E+06
   8176      1     47    172       25.80          0.1815E+06
   8177      1     47    173       25.70          0.1815E+06
   8178      1     47    174       25.50          0.1815E+06
   8179      1     48      1      -6.750          0.1815E+06
   8180      1     48      2      -7.450          0.1815E+06
   8181      1     48      3      -7.450          0.1815E+06
   8182      1     48      4      -7.050          0.1815E+06
   8183      1     48      5      -6.120          0.1815E+06
   8184      1     48      6      -5.630          0.1815E+06
   8185      1     48      7      -5.250          0.1815E+06
   8186      1     48      8      -4.080          0.1815E+06
   8187      1     48      9      -4.080          0.1815E+06
   8188      1     48     10      -3.940          0.1815E+06
   8189      1     48     11      -3.540          0.1815E+06
   8190      1     48     12      -2.870          0.1815E+06
   8191      1     48     13      0.4100          0.1815E+06
   8192      1     48     14      0.4300          0.1815E+06
   8193      1     48     15      0.4300          0.1815E+06
   8194      1     48     16       1.430          0.1815E+06
   8195      1     48     17       2.430          0.1815E+06
   8196      1     48     18       2.430          0.1815E+06
   8197      1     48     19       5.930          0.1815E+06
   8198      1     48     20       5.320          0.1815E+06
   8199      1     48     21       9.190          0.1815E+06
   8200      1     48     22       8.520          0.1815E+06
   8201      1     48     23       8.180          0.1815E+06
   8202      1     48     24       8.810          0.1815E+06
   8203      1     48     25       8.560          0.1815E+06
   8204      1     48     26       9.050          0.1815E+06
   8205      1     48     27       10.71          0.1815E+06
   8206      1     48     28       10.31          0.1815E+06
   8207      1     48     29       11.35          0.1815E+06
   8208      1     48     30       11.69          0.1815E+06
   8209      1     48     31       11.77          0.1815E+06
   8210      1     48     32       12.18          0.1815E+06
   8211      1     48     33       13.19          0.1815E+06
   8212      1     48     34       12.92          0.1815E+06
   8213      1     48     35       13.43          0.1815E+06
   8214      1     48     36       12.96          0.1815E+06
   8215      1     48     37       12.85          0.1815E+06
   8216      1     48     38       13.03          0.1815E+06
   8217      1     48     39       13.30          0.1815E+06
   8218      1     48     40       12.97          0.1815E+06
   8219      1     48     41       12.64          0.1815E+06
   8220      1     48     42       12.72          0.1815E+06
   8221      1     48     43       12.85          0.1815E+06
   8222      1     48     44       12.60          0.1815E+06
   8223      1     48     45       12.39          0.1815E+06
   8224      1     48     46       12.55          0.1815E+06
   8225      1     48     47       12.18          0.1815E+06
   8226      1     48     48       11.51          0.1815E+06
   8227      1     48     49       11.21          0.1815E+06
   8228      1     48     50       10.90          0.1815E+06
   8229      1     48     51       10.39          0.1815E+06
   8230      1     48     52       9.970          0.1815E+06
   8231      1     48     53       9.820          0.1815E+06
   8232      1     48     54       8.940          0.1815E+06
   8233      1     48     55       10.32          0.1815E+06
   8234      1     48     56       11.50          0.1815E+06
   8235      1     48     57       11.80          0.1815E+06
   8236      1     48     58       12.00          0.1815E+06
   8237      1     48     59       12.20          0.1815E+06
   8238      1     48     60       12.00          0.1815E+06
   8239      1     48     61       11.50          0.1815E+06
   8240      1     48     62       10.70          0.1815E+06
   8241      1     48     63       9.150          0.1815E+06
   8242      1     48     64       13.00          0.1815E+06
   8243      1     48     65       15.90          0.1815E+06
   8244      1     48     66       17.20          0.1815E+06
   8245      1     48     67       18.40          0.1815E+06
   8246      1     48     68       19.10          0.1815E+06
   8247      1     48     69       20.00          0.1815E+06
   8248      1     48     70       20.60          0.1815E+06
   8249      1     48     71       22.20          0.1815E+06
   8250      1     48     72       23.00          0.1815E+06
   8251      1     48     73       23.10          0.1815E+06
   8252      1     48     74       23.50          0.1815E+06
   8253      1     48     75       24.60          0.1815E+06
   8254      1     48     76       25.90          0.1815E+06
   8255      1     48     77       26.30          0.1815E+06
   8256      1     48     78       26.20          0.1815E+06
   8257      1     48     79       23.30          0.1815E+06
   8258      1     48     80       22.60          0.1815E+06
   8259      1     48     81       25.50          0.1815E+06
   8260      1     48     82       30.00          0.1815E+06
   8261      1     48     83       32.50          0.1815E+06
   8262      1     48     84       32.80          0.1815E+06
   8263      1     48     85       33.10          0.1815E+06
   8264      1     48     86       33.50          0.1815E+06
   8265      1     48     87       34.50          0.1815E+06
   8266      1     48     88       35.90          0.1815E+06
   8267      1     48     89       37.40          0.1815E+06
   8268      1     48     90       37.30          0.1815E+06
   8269      1     48     91       36.90          0.1815E+06
   8270      1     48     92       37.40          0.1815E+06
   8271      1     48     93       36.10          0.1815E+06
   8272      1     48     94       35.10          0.1815E+06
   8273      1     48     95       35.00          0.1815E+06
   8274      1     48     96       36.40          0.1815E+06
   8275      1     48     97       36.50          0.1815E+06
   8276      1     48     98       36.00          0.1815E+06
   8277      1     48     99       36.10          0.1815E+06
   8278      1     48    100       36.10          0.1815E+06
   8279      1     48    101       33.80          0.1815E+06
   8280      1     48    102       32.30          0.1815E+06
   8281      1     48    103       34.00          0.1815E+06
   8282      1     48    104       35.60          0.1815E+06
   8283      1     48    105       36.50          0.1815E+06
   8284      1     48    106       37.10          0.1815E+06
   8285      1     48    107       37.30          0.1815E+06
   8286      1     48    108       37.30          0.1815E+06
   8287      1     48    109       37.40          0.1815E+06
   8288      1     48    110       37.80          0.1815E+06
   8289      1     48    111       38.20          0.1815E+06
   8290      1     48    112       38.70          0.1815E+06
   8291      1     48    113       38.90          0.1815E+06
   8292      1     48    114       39.10          0.1815E+06
   8293      1     48    115       39.40          0.1815E+06
   8294      1     48    116       39.90          0.1815E+06
   8295      1     48    117       40.40          0.1815E+06
   8296      1     48    118       40.40          0.1815E+06
   8297      1     48    119       40.30          0.1815E+06
   8298      1     48    120       40.60          0.1815E+06
   8299      1     48    121       40.80          0.1815E+06
   8300      1     48    122       39.70          0.1815E+06
   8301      1     48    123       37.30          0.1815E+06
   8302      1     48    124       35.70          0.1815E+06
   8303      1     48    125       36.20          0.1815E+06
   8304      1     48    126       38.20          0.1815E+06
   8305      1     48    127       39.70          0.1815E+06
   8306      1     48    128       40.00          0.1815E+06
   8307      1     48    129       39.10          0.1815E+06
   8308      1     48    130       38.10          0.1815E+06
   8309      1     48    131       37.60          0.1815E+06
   8310      1     48    132       37.20          0.1815E+06
   8311      1     48    133       36.60          0.1815E+06
   8312      1     48    134       35.60          0.1815E+06
   8313      1     48    135       33.90          0.1815E+06
   8314      1     48    136       32.10          0.1815E+06
   8315      1     48    137       31.10          0.1815E+06
   8316      1     48    138       31.50          0.1815E+06
   8317      1     48    139       31.20          0.1815E+06
   8318      1     48    140       29.90          0.1815E+06
   8319      1     48    141       27.60          0.1815E+06
   8320      1     48    142       27.20          0.1815E+06
   8321      1     48    143       25.30          0.1815E+06
   8322      1     48    144       24.00          0.1815E+06
   8323      1     48    145       24.20          0.1815E+06
   8324      1     48    146       24.30          0.1815E+06
   8325      1     48    147       24.30          0.1815E+06
   8326      1     48    148       24.00          0.1815E+06
   8327      1     48    149       23.80          0.1815E+06
   8328      1     48    150       23.60          0.1815E+06
   8329      1     48    151       23.50          0.1815E+06
   8330      1     48    152       23.40          0.1815E+06
   8331      1     48    153       22.80          0.1815E+06
   8332      1     48    154       21.60          0.1815E+06
   8333      1     48    155       21.20          0.1815E+06
   8334      1     48    156       22.50          0.1815E+06
   8335      1     48    157       23.50          0.1815E+06
   8336      1     48    158       24.00          0.1815E+06
   8337      1     48    159       24.20          0.1815E+06
   8338      1     48    160       24.10          0.1815E+06
   8339      1     48    161       23.90          0.1815E+06
   8340      1     48    162       23.90          0.1815E+06
   8341      1     48    163       24.20          0.1815E+06
   8342      1     48    164       24.30          0.1815E+06
   8343      1     48    165       23.60          0.1815E+06
   8344      1     48    166       23.10          0.1815E+06
   8345      1     48    167       24.30          0.1815E+06
   8346      1     48    168       25.90          0.1815E+06
   8347      1     48    169       26.90          0.1815E+06
   8348      1     48    170       28.00          0.1815E+06
   8349      1     48    171       28.70          0.1815E+06
   8350      1     48    172       29.00          0.1815E+06
   8351      1     48    173       29.10          0.1815E+06
   8352      1     48    174       29.00          0.1815E+06
   8353      1     49      1      -8.450          0.1815E+06
   8354      1     49      2      -7.910          0.1815E+06
   8355      1     49      3      -7.910          0.1815E+06
   8356      1     49      4      -7.050          0.1815E+06
   8357      1     49      5      -6.120          0.1815E+06
   8358      1     49      6      -5.630          0.1815E+06
   8359      1     49      7      -5.250          0.1815E+06
   8360      1     49      8      -4.350          0.1815E+06
   8361      1     49      9      -4.350          0.1815E+06
   8362      1     49     10      -4.150          0.1815E+06
   8363      1     49     11      -3.780          0.1815E+06
   8364      1     49     12      -3.030          0.1815E+06
   8365      1     49     13     -0.4700          0.1815E+06
   8366      1     49     14      0.4200          0.1815E+06
   8367      1     49     15      0.4200          0.1815E+06
   8368      1     49     16      0.4200          0.1815E+06
   8369      1     49     17       1.430          0.1815E+06
   8370      1     49     18       2.430          0.1815E+06
   8371      1     49     19       3.430          0.1815E+06
   8372      1     49     20       6.430          0.1815E+06
   8373      1     49     21       6.430          0.1815E+06
   8374      1     49     22       7.510          0.1815E+06
   8375      1     49     23       8.360          0.1815E+06
   8376      1     49     24       8.150          0.1815E+06
   8377      1     49     25       8.560          0.1815E+06
   8378      1     49     26       8.800          0.1815E+06
   8379      1     49     27       9.610          0.1815E+06
   8380      1     49     28       12.26          0.1815E+06
   8381      1     49     29       11.55          0.1815E+06
   8382      1     49     30       11.61          0.1815E+06
   8383      1     49     31       11.80          0.1815E+06
   8384      1     49     32       12.31          0.1815E+06
   8385      1     49     33       12.14          0.1815E+06
   8386      1     49     34       12.46          0.1815E+06
   8387      1     49     35       12.69          0.1815E+06
   8388      1     49     36       12.88          0.1815E+06
   8389      1     49     37       12.68          0.1815E+06
   8390      1     49     38       12.57          0.1815E+06
   8391      1     49     39       13.02          0.1815E+06
   8392      1     49     40       12.75          0.1815E+06
   8393      1     49     41       12.50          0.1815E+06
   8394      1     49     42       12.63          0.1815E+06
   8395      1     49     43       12.50          0.1815E+06
   8396      1     49     44       12.43          0.1815E+06
   8397      1     49     45       11.93          0.1815E+06
   8398      1     49     46       11.39          0.1815E+06
   8399      1     49     47       10.97          0.1815E+06
   8400      1     49     48       10.06          0.1815E+06
   8401      1     49     49       9.970          0.1815E+06
   8402      1     49     50       9.690          0.1815E+06
   8403      1     49     51       8.350          0.1815E+06
   8404      1     49     52       8.070          0.1815E+06
   8405      1     49     53       8.590          0.1815E+06
   8406      1     49     54       8.100          0.1815E+06
   8407      1     49     55       8.500          0.1815E+06
   8408      1     49     56       9.470          0.1815E+06
   8409      1     49     57       9.950          0.1815E+06
   8410      1     49     58       10.36          0.1815E+06
   8411      1     49     59       11.10          0.1815E+06
   8412      1     49     60       11.10          0.1815E+06
   8413      1     49     61       10.41          0.1815E+06
   8414      1     49     62       9.230          0.1815E+06
   8415      1     49     63       9.860          0.1815E+06
   8416      1     49     64       14.10          0.1815E+06
   8417      1     49     65       16.00          0.1815E+06
   8418      1     49     66       17.40          0.1815E+06
   8419      1     49     67       18.00          0.1815E+06
   8420      1     49     68       18.30          0.1815E+06
   8421      1     49     69       17.50          0.1815E+06
   8422      1     49     70       17.70          0.1815E+06
   8423      1     49     71       20.60          0.1815E+06
   8424      1     49     72       22.70          0.1815E+06
   8425      1     49     73       23.20          0.1815E+06
   8426      1     49     74       23.10          0.1815E+06
   8427      1     49     75       22.80          0.1815E+06
   8428      1     49     76       22.80          0.1815E+06
   8429      1     49     77       23.40          0.1815E+06
   8430      1     49     78       22.90          0.1815E+06
   8431      1     49     79       20.50          0.1815E+06
   8432      1     49     80       19.50          0.1815E+06
   8433      1     49     81       24.30          0.1815E+06
   8434      1     49     82       27.70          0.1815E+06
   8435      1     49     83       29.90          0.1815E+06
   8436      1     49     84       29.00          0.1815E+06
   8437      1     49     85       30.10          0.1815E+06
   8438      1     49     86       30.80          0.1815E+06
   8439      1     49     87       30.90          0.1815E+06
   8440      1     49     88       32.60          0.1815E+06
   8441      1     49     89       35.10          0.1815E+06
   8442      1     49     90       35.50          0.1815E+06
   8443      1     49     91       35.20          0.1815E+06
   8444      1     49     92       33.90          0.1815E+06
   8445      1     49     93       33.20          0.1815E+06
   8446      1     49     94       32.10          0.1815E+06
   8447      1     49     95       32.50          0.1815E+06
   8448      1     49     96       35.20          0.1815E+06
   8449      1     49     97       36.10          0.1815E+06
   8450      1     49     98       36.10          0.1815E+06
   8451      1     49     99       36.10          0.1815E+06
   8452      1     49    100       36.00          0.1815E+06
   8453      1     49    101       34.20          0.1815E+06
   8454      1     49    102       32.40          0.1815E+06
   8455      1     49    103       33.50          0.1815E+06
   8456      1     49    104       35.00          0.1815E+06
   8457      1     49    105       36.10          0.1815E+06
   8458      1     49    106       36.70          0.1815E+06
   8459      1     49    107       36.80          0.1815E+06
   8460      1     49    108       37.10          0.1815E+06
   8461      1     49    109       37.50          0.1815E+06
   8462      1     49    110       38.00          0.1815E+06
   8463      1     49    111       38.50          0.1815E+06
   8464      1     49    112       38.90          0.1815E+06
   8465      1     49    113       39.20          0.1815E+06
   8466      1     49    114       39.50          0.1815E+06
   8467      1     49    115       40.00          0.1815E+06
   8468      1     49    116       40.60          0.1815E+06
   8469      1     49    117       40.70          0.1815E+06
   8470      1     49    118       40.80          0.1815E+06
   8471      1     49    119       40.60          0.1815E+06
   8472      1     49    120       40.50          0.1815E+06
   8473      1     49    121       40.70          0.1815E+06
   8474      1     49    122       40.20          0.1815E+06
   8475      1     49    123       38.90          0.1815E+06
   8476      1     49    124       37.90          0.1815E+06
   8477      1     49    125       38.10          0.1815E+06
   8478      1     49    126       39.40          0.1815E+06
   8479      1     49    127       40.40          0.1815E+06
   8480      1     49    128       40.60          0.1815E+06
   8481      1     49    129       40.00          0.1815E+06
   8482      1     49    130       38.70          0.1815E+06
   8483      1     49    131       37.90          0.1815E+06
   8484      1     49    132       37.00          0.1815E+06
   8485      1     49    133       36.00          0.1815E+06
   8486      1     49    134       34.90          0.1815E+06
   8487      1     49    135       33.50          0.1815E+06
   8488      1     49    136       32.00          0.1815E+06
   8489      1     49    137       30.40          0.1815E+06
   8490      1     49    138       29.40          0.1815E+06
   8491      1     49    139       29.20          0.1815E+06
   8492      1     49    140       26.60          0.1815E+06
   8493      1     49    141       24.30          0.1815E+06
   8494      1     49    142       24.50          0.1815E+06
   8495      1     49    143       24.60          0.1815E+06
   8496      1     49    144       24.30          0.1815E+06
   8497      1     49    145       24.30          0.1815E+06
   8498      1     49    146       24.40          0.1815E+06
   8499      1     49    147       24.30          0.1815E+06
   8500      1     49    148       24.10          0.1815E+06
   8501      1     49    149       23.80          0.1815E+06
   8502      1     49    150       23.70          0.1815E+06
   8503      1     49    151       23.70          0.1815E+06
   8504      1     49    152       23.70          0.1815E+06
   8505      1     49    153       23.10          0.1815E+06
   8506      1     49    154       22.30          0.1815E+06
   8507      1     49    155       22.80          0.1815E+06
   8508      1     49    156       24.10          0.1815E+06
   8509      1     49    157       24.80          0.1815E+06
   8510      1     49    158       24.90          0.1815E+06
   8511      1     49    159       24.80          0.1815E+06
   8512      1     49    160       24.90          0.1815E+06
   8513      1     49    161       25.00          0.1815E+06
   8514      1     49    162       25.40          0.1815E+06
   8515      1     49    163       26.40          0.1815E+06
   8516      1     49    164       26.70          0.1815E+06
   8517      1     49    165       24.90          0.1815E+06
   8518      1     49    166       24.00          0.1815E+06
   8519      1     49    167       25.00          0.1815E+06
   8520      1     49    168       28.10          0.1815E+06
   8521      1     49    169       29.80          0.1815E+06
   8522      1     49    170       31.50          0.1815E+06
   8523      1     49    171       32.60          0.1815E+06
   8524      1     49    172       32.80          0.1815E+06
   8525      1     49    173       32.60          0.1815E+06
   8526      1     49    174       32.30          0.1815E+06
   8527      1     50      1      -8.450          0.1815E+06
   8528      1     50      2      -7.910          0.1815E+06
   8529      1     50      3      -7.910          0.1815E+06
   8530      1     50      4      -6.650          0.1815E+06
   8531      1     50      5      -6.050          0.1815E+06
   8532      1     50      6      -5.850          0.1815E+06
   8533      1     50      7      -5.350          0.1815E+06
   8534      1     50      8      -5.050          0.1815E+06
   8535      1     50      9      -5.050          0.1815E+06
   8536      1     50     10      -4.650          0.1815E+06
   8537      1     50     11      -4.290          0.1815E+06
   8538      1     50     12      -3.660          0.1815E+06
   8539      1     50     13      -2.100          0.1815E+06
   8540      1     50     14     -0.9000          0.1815E+06
   8541      1     50     15     -0.9000          0.1815E+06
   8542      1     50     16      0.4200          0.1815E+06
   8543      1     50     17      0.4200          0.1815E+06
   8544      1     50     18       2.430          0.1815E+06
   8545      1     50     19       2.430          0.1815E+06
   8546      1     50     20       4.430          0.1815E+06
   8547      1     50     21       4.430          0.1815E+06
   8548      1     50     22       8.430          0.1815E+06
   8549      1     50     23       8.000          0.1815E+06
   8550      1     50     24       7.900          0.1815E+06
   8551      1     50     25       8.350          0.1815E+06
   8552      1     50     26       8.880          0.1815E+06
   8553      1     50     27       10.07          0.1815E+06
   8554      1     50     28       12.01          0.1815E+06
   8555      1     50     29       11.43          0.1815E+06
   8556      1     50     30       12.48          0.1815E+06
   8557      1     50     31       11.92          0.1815E+06
   8558      1     50     32       12.52          0.1815E+06
   8559      1     50     33       12.18          0.1815E+06
   8560      1     50     34       12.26          0.1815E+06
   8561      1     50     35       12.59          0.1815E+06
   8562      1     50     36       12.89          0.1815E+06
   8563      1     50     37       12.68          0.1815E+06
   8564      1     50     38       12.69          0.1815E+06
   8565      1     50     39       12.47          0.1815E+06
   8566      1     50     40       12.52          0.1815E+06
   8567      1     50     41       12.47          0.1815E+06
   8568      1     50     42       12.43          0.1815E+06
   8569      1     50     43       12.43          0.1815E+06
   8570      1     50     44       11.76          0.1815E+06
   8571      1     50     45       11.22          0.1815E+06
   8572      1     50     46       10.56          0.1815E+06
   8573      1     50     47       9.810          0.1815E+06
   8574      1     50     48       9.060          0.1815E+06
   8575      1     50     49       8.610          0.1815E+06
   8576      1     50     50       7.920          0.1815E+06
   8577      1     50     51       7.590          0.1815E+06
   8578      1     50     52       8.030          0.1815E+06
   8579      1     50     53       7.920          0.1815E+06
   8580      1     50     54       7.820          0.1815E+06
   8581      1     50     55       7.940          0.1815E+06
   8582      1     50     56       7.960          0.1815E+06
   8583      1     50     57       8.100          0.1815E+06
   8584      1     50     58       8.470          0.1815E+06
   8585      1     50     59       9.720          0.1815E+06
   8586      1     50     60       10.21          0.1815E+06
   8587      1     50     61       9.700          0.1815E+06
   8588      1     50     62       9.170          0.1815E+06
   8589      1     50     63       12.94          0.1815E+06
   8590      1     50     64       16.10          0.1815E+06
   8591      1     50     65       16.50          0.1815E+06
   8592      1     50     66       16.90          0.1815E+06
   8593      1     50     67       17.20          0.1815E+06
   8594      1     50     68       16.70          0.1815E+06
   8595      1     50     69       14.40          0.1815E+06
   8596      1     50     70       15.50          0.1815E+06
   8597      1     50     71       18.30          0.1815E+06
   8598      1     50     72       21.80          0.1815E+06
   8599      1     50     73       22.10          0.1815E+06
   8600      1     50     74       22.30          0.1815E+06
   8601      1     50     75       21.50          0.1815E+06
   8602      1     50     76       19.40          0.1815E+06
   8603      1     50     77       18.70          0.1815E+06
   8604      1     50     78       17.40          0.1815E+06
   8605      1     50     79       16.30          0.1815E+06
   8606      1     50     80       17.70          0.1815E+06
   8607      1     50     81       20.50          0.1815E+06
   8608      1     50     82       23.80          0.1815E+06
   8609      1     50     83       26.00          0.1815E+06
   8610      1     50     84       25.00          0.1815E+06
   8611      1     50     85       24.40          0.1815E+06
   8612      1     50     86       26.20          0.1815E+06
   8613      1     50     87       26.00          0.1815E+06
   8614      1     50     88       27.40          0.1815E+06
   8615      1     50     89       29.60          0.1815E+06
   8616      1     50     90       30.60          0.1815E+06
   8617      1     50     91       30.50          0.1815E+06
   8618      1     50     92       28.60          0.1815E+06
   8619      1     50     93       29.20          0.1815E+06
   8620      1     50     94       27.70          0.1815E+06
   8621      1     50     95       30.80          0.1815E+06
   8622      1     50     96       33.10          0.1815E+06
   8623      1     50     97       34.30          0.1815E+06
   8624      1     50     98       34.50          0.1815E+06
   8625      1     50     99       35.10          0.1815E+06
   8626      1     50    100       35.70          0.1815E+06
   8627      1     50    101       34.70          0.1815E+06
   8628      1     50    102       33.10          0.1815E+06
   8629      1     50    103       33.50          0.1815E+06
   8630      1     50    104       35.00          0.1815E+06
   8631      1     50    105       35.80          0.1815E+06
   8632      1     50    106       36.20          0.1815E+06
   8633      1     50    107       36.50          0.1815E+06
   8634      1     50    108       37.00          0.1815E+06
   8635      1     50    109       37.50          0.1815E+06
   8636      1     50    110       38.00          0.1815E+06
   8637      1     50    111       38.40          0.1815E+06
   8638      1     50    112       38.90          0.1815E+06
   8639      1     50    113       39.20          0.1815E+06
   8640      1     50    114       39.70          0.1815E+06
   8641      1     50    115       40.80          0.1815E+06
   8642      1     50    116       40.70          0.1815E+06
   8643      1     50    117       40.60          0.1815E+06
   8644      1     50    118       40.80          0.1815E+06
   8645      1     50    119       41.00          0.1815E+06
   8646      1     50    120       40.70          0.1815E+06
   8647      1     50    121       40.60          0.1815E+06
   8648      1     50    122       40.70          0.1815E+06
   8649      1     50    123       40.20          0.1815E+06
   8650      1     50    124       39.60          0.1815E+06
   8651      1     50    125       40.00          0.1815E+06
   8652      1     50    126       40.00          0.1815E+06
   8653      1     50    127       40.40          0.1815E+06
   8654      1     50    128       40.50          0.1815E+06
   8655      1     50    129       40.30          0.1815E+06
   8656      1     50    130       39.50          0.1815E+06
   8657      1     50    131       38.30          0.1815E+06
   8658      1     50    132       37.00          0.1815E+06
   8659      1     50    133       35.50          0.1815E+06
   8660      1     50    134       34.50          0.1815E+06
   8661      1     50    135       33.30          0.1815E+06
   8662      1     50    136       32.20          0.1815E+06
   8663      1     50    137       31.20          0.1815E+06
   8664      1     50    138       29.60          0.1815E+06
   8665      1     50    139       28.60          0.1815E+06
   8666      1     50    140       26.20          0.1815E+06
   8667      1     50    141       23.50          0.1815E+06
   8668      1     50    142       23.80          0.1815E+06
   8669      1     50    143       24.40          0.1815E+06
   8670      1     50    144       24.30          0.1815E+06
   8671      1     50    145       24.30          0.1815E+06
   8672      1     50    146       24.50          0.1815E+06
   8673      1     50    147       24.40          0.1815E+06
   8674      1     50    148       24.10          0.1815E+06
   8675      1     50    149       23.80          0.1815E+06
   8676      1     50    150       23.70          0.1815E+06
   8677      1     50    151       23.90          0.1815E+06
   8678      1     50    152       24.00          0.1815E+06
   8679      1     50    153       23.50          0.1815E+06
   8680      1     50    154       23.80          0.1815E+06
   8681      1     50    155       25.50          0.1815E+06
   8682      1     50    156       26.70          0.1815E+06
   8683      1     50    157       27.20          0.1815E+06
   8684      1     50    158       27.10          0.1815E+06
   8685      1     50    159       27.10          0.1815E+06
   8686      1     50    160       28.00          0.1815E+06
   8687      1     50    161       29.20          0.1815E+06
   8688      1     50    162       30.00          0.1815E+06
   8689      1     50    163       30.20          0.1815E+06
   8690      1     50    164       29.60          0.1815E+06
   8691      1     50    165       26.30          0.1815E+06
   8692      1     50    166       24.30          0.1815E+06
   8693      1     50    167       26.80          0.1815E+06
   8694      1     50    168       30.80          0.1815E+06
   8695      1     50    169       33.80          0.1815E+06
   8696      1     50    170       35.60          0.1815E+06
   8697      1     50    171       35.60          0.1815E+06
   8698      1     50    172       35.60          0.1815E+06
   8699      1     50    173       35.40          0.1815E+06
   8700      1     50    174       34.80          0.1815E+06
   8701      1     51      1      -7.760          0.1815E+06
   8702      1     51      2      -7.060          0.1815E+06
   8703      1     51      3      -7.060          0.1815E+06
   8704      1     51      4      -6.060          0.1815E+06
   8705      1     51      5      -5.710          0.1815E+06
   8706      1     51      6      -4.560          0.1815E+06
   8707      1     51      7      -4.060          0.1815E+06
   8708      1     51      8      -4.550          0.1815E+06
   8709      1     51      9      -4.550          0.1815E+06
   8710      1     51     10      -4.460          0.1815E+06
   8711      1     51     11      -4.550          0.1815E+06
   8712      1     51     12      -4.160          0.1815E+06
   8713      1     51     13      -4.060          0.1815E+06
   8714      1     51     14      -3.460          0.1815E+06
   8715      1     51     15      -3.460          0.1815E+06
   8716      1     51     16      -3.060          0.1815E+06
   8717      1     51     17      -2.650          0.1815E+06
   8718      1     51     18       1.420          0.1815E+06
   8719      1     51     19       2.430          0.1815E+06
   8720      1     51     20       4.430          0.1815E+06
   8721      1     51     21       4.430          0.1815E+06
   8722      1     51     22       8.430          0.1815E+06
   8723      1     51     23       7.940          0.1815E+06
   8724      1     51     24       7.090          0.1815E+06
   8725      1     51     25       7.960          0.1815E+06
   8726      1     51     26       8.850          0.1815E+06
   8727      1     51     27       9.170          0.1815E+06
   8728      1     51     28       10.14          0.1815E+06
   8729      1     51     29       11.19          0.1815E+06
   8730      1     51     30       11.48          0.1815E+06
   8731      1     51     31       13.50          0.1815E+06
   8732      1     51     32       12.32          0.1815E+06
   8733      1     51     33       12.21          0.1815E+06
   8734      1     51     34       12.22          0.1815E+06
   8735      1     51     35       12.19          0.1815E+06
   8736      1     51     36       12.31          0.1815E+06
   8737      1     51     37       12.27          0.1815E+06
   8738      1     51     38       12.31          0.1815E+06
   8739      1     51     39       12.43          0.1815E+06
   8740      1     51     40       12.23          0.1815E+06
   8741      1     51     41       12.35          0.1815E+06
   8742      1     51     42       12.13          0.1815E+06
   8743      1     51     43       11.52          0.1815E+06
   8744      1     51     44       11.14          0.1815E+06
   8745      1     51     45       11.09          0.1815E+06
   8746      1     51     46       9.780          0.1815E+06
   8747      1     51     47       8.500          0.1815E+06
   8748      1     51     48       7.670          0.1815E+06
   8749      1     51     49       7.650          0.1815E+06
   8750      1     51     50       7.780          0.1815E+06
   8751      1     51     51       7.800          0.1815E+06
   8752      1     51     52       8.020          0.1815E+06
   8753      1     51     53       8.000          0.1815E+06
   8754      1     51     54       8.060          0.1815E+06
   8755      1     51     55       8.350          0.1815E+06
   8756      1     51     56       8.150          0.1815E+06
   8757      1     51     57       8.220          0.1815E+06
   8758      1     51     58       8.400          0.1815E+06
   8759      1     51     59       8.400          0.1815E+06
   8760      1     51     60       8.630          0.1815E+06
   8761      1     51     61       8.680          0.1815E+06
   8762      1     51     62       8.940          0.1815E+06
   8763      1     51     63       9.850          0.1815E+06
   8764      1     51     64       14.04          0.1815E+06
   8765      1     51     65       15.17          0.1815E+06
   8766      1     51     66       15.60          0.1815E+06
   8767      1     51     67       15.70          0.1815E+06
   8768      1     51     68       13.90          0.1815E+06
   8769      1     51     69       12.30          0.1815E+06
   8770      1     51     70       13.00          0.1815E+06
   8771      1     51     71       14.40          0.1815E+06
   8772      1     51     72       18.00          0.1815E+06
   8773      1     51     73       19.40          0.1815E+06
   8774      1     51     74       20.60          0.1815E+06
   8775      1     51     75       19.20          0.1815E+06
   8776      1     51     76       16.40          0.1815E+06
   8777      1     51     77       15.00          0.1815E+06
   8778      1     51     78       15.70          0.1815E+06
   8779      1     51     79       18.30          0.1815E+06
   8780      1     51     80       18.60          0.1815E+06
   8781      1     51     81       18.40          0.1815E+06
   8782      1     51     82       19.00          0.1815E+06
   8783      1     51     83       20.40          0.1815E+06
   8784      1     51     84       20.30          0.1815E+06
   8785      1     51     85       20.30          0.1815E+06
   8786      1     51     86       22.20          0.1815E+06
   8787      1     51     87       22.60          0.1815E+06
   8788      1     51     88       22.90          0.1815E+06
   8789      1     51     89       24.30          0.1815E+06
   8790      1     51     90       24.80          0.1815E+06
   8791      1     51     91       24.50          0.1815E+06
   8792      1     51     92       23.70          0.1815E+06
   8793      1     51     93       24.70          0.1815E+06
   8794      1     51     94       24.40          0.1815E+06
   8795      1     51     95       26.40          0.1815E+06
   8796      1     51     96       28.80          0.1815E+06
   8797      1     51     97       30.20          0.1815E+06
   8798      1     51     98       30.70          0.1815E+06
   8799      1     51     99       31.70          0.1815E+06
   8800      1     51    100       33.70          0.1815E+06
   8801      1     51    101       33.30          0.1815E+06
   8802      1     51    102       32.20          0.1815E+06
   8803      1     51    103       33.00          0.1815E+06
   8804      1     51    104       35.10          0.1815E+06
   8805      1     51    105       36.10          0.1815E+06
   8806      1     51    106       36.20          0.1815E+06
   8807      1     51    107       36.50          0.1815E+06
   8808      1     51    108       37.00          0.1815E+06
   8809      1     51    109       37.20          0.1815E+06
   8810      1     51    110       37.60          0.1815E+06
   8811      1     51    111       38.00          0.1815E+06
   8812      1     51    112       38.50          0.1815E+06
   8813      1     51    113       39.00          0.1815E+06
   8814      1     51    114       39.50          0.1815E+06
   8815      1     51    115       40.10          0.1815E+06
   8816      1     51    116       40.10          0.1815E+06
   8817      1     51    117       40.10          0.1815E+06
   8818      1     51    118       39.70          0.1815E+06
   8819      1     51    119       40.00          0.1815E+06
   8820      1     51    120       41.10          0.1815E+06
   8821      1     51    121       40.90          0.1815E+06
   8822      1     51    122       40.60          0.1815E+06
   8823      1     51    123       40.40          0.1815E+06
   8824      1     51    124       40.50          0.1815E+06
   8825      1     51    125       40.60          0.1815E+06
   8826      1     51    126       40.50          0.1815E+06
   8827      1     51    127       40.50          0.1815E+06
   8828      1     51    128       40.70          0.1815E+06
   8829      1     51    129       40.60          0.1815E+06
   8830      1     51    130       39.90          0.1815E+06
   8831      1     51    131       38.60          0.1815E+06
   8832      1     51    132       37.30          0.1815E+06
   8833      1     51    133       36.20          0.1815E+06
   8834      1     51    134       34.80          0.1815E+06
   8835      1     51    135       33.40          0.1815E+06
   8836      1     51    136       32.70          0.1815E+06
   8837      1     51    137       32.20          0.1815E+06
   8838      1     51    138       31.60          0.1815E+06
   8839      1     51    139       30.60          0.1815E+06
   8840      1     51    140       28.00          0.1815E+06
   8841      1     51    141       25.20          0.1815E+06
   8842      1     51    142       23.70          0.1815E+06
   8843      1     51    143       23.80          0.1815E+06
   8844      1     51    144       23.80          0.1815E+06
   8845      1     51    145       24.30          0.1815E+06
   8846      1     51    146       24.60          0.1815E+06
   8847      1     51    147       24.50          0.1815E+06
   8848      1     51    148       23.80          0.1815E+06
   8849      1     51    149       23.40          0.1815E+06
   8850      1     51    150       23.20          0.1815E+06
   8851      1     51    151       23.50          0.1815E+06
   8852      1     51    152       23.80          0.1815E+06
   8853      1     51    153       24.50          0.1815E+06
   8854      1     51    154       25.80          0.1815E+06
   8855      1     51    155       27.50          0.1815E+06
   8856      1     51    156       28.60          0.1815E+06
   8857      1     51    157       29.60          0.1815E+06
   8858      1     51    158       29.80          0.1815E+06
   8859      1     51    159       29.70          0.1815E+06
   8860      1     51    160       31.10          0.1815E+06
   8861      1     51    161       32.70          0.1815E+06
   8862      1     51    162       33.50          0.1815E+06
   8863      1     51    163       33.50          0.1815E+06
   8864      1     51    164       32.80          0.1815E+06
   8865      1     51    165       29.90          0.1815E+06
   8866      1     51    166       24.80          0.1815E+06
   8867      1     51    167       27.70          0.1815E+06
   8868      1     51    168       32.50          0.1815E+06
   8869      1     51    169       35.00          0.1815E+06
   8870      1     51    170       36.60          0.1815E+06
   8871      1     51    171       36.50          0.1815E+06
   8872      1     51    172       36.40          0.1815E+06
   8873      1     51    173       36.40          0.1815E+06
   8874      1     51    174       36.40          0.1815E+06
   8875      1     52      1      -7.330          0.1815E+06
   8876      1     52      2      -7.060          0.1815E+06
   8877      1     52      3      -7.060          0.1815E+06
   8878      1     52      4      -5.570          0.1815E+06
   8879      1     52      5      -6.160          0.1815E+06
   8880      1     52      6      -4.860          0.1815E+06
   8881      1     52      7      -4.860          0.1815E+06
   8882      1     52      8      -4.660          0.1815E+06
   8883      1     52      9      -4.660          0.1815E+06
   8884      1     52     10      -4.610          0.1815E+06
   8885      1     52     11      -4.160          0.1815E+06
   8886      1     52     12      -4.080          0.1815E+06
   8887      1     52     13      -4.140          0.1815E+06
   8888      1     52     14      -3.460          0.1815E+06
   8889      1     52     15      -3.460          0.1815E+06
   8890      1     52     16      -3.060          0.1815E+06
   8891      1     52     17      0.4200          0.1815E+06
   8892      1     52     18       1.420          0.1815E+06
   8893      1     52     19       2.430          0.1815E+06
   8894      1     52     20       3.430          0.1815E+06
   8895      1     52     21       3.430          0.1815E+06
   8896      1     52     22       6.840          0.1815E+06
   8897      1     52     23       7.690          0.1815E+06
   8898      1     52     24       8.980          0.1815E+06
   8899      1     52     25       7.940          0.1815E+06
   8900      1     52     26       8.680          0.1815E+06
   8901      1     52     27       9.890          0.1815E+06
   8902      1     52     28       9.720          0.1815E+06
   8903      1     52     29       13.31          0.1815E+06
   8904      1     52     30       11.43          0.1815E+06
   8905      1     52     31       11.75          0.1815E+06
   8906      1     52     32       11.27          0.1815E+06
   8907      1     52     33       11.68          0.1815E+06
   8908      1     52     34       11.97          0.1815E+06
   8909      1     52     35       12.39          0.1815E+06
   8910      1     52     36       12.00          0.1815E+06
   8911      1     52     37       12.40          0.1815E+06
   8912      1     52     38       12.25          0.1815E+06
   8913      1     52     39       12.27          0.1815E+06
   8914      1     52     40       12.31          0.1815E+06
   8915      1     52     41       11.89          0.1815E+06
   8916      1     52     42       11.64          0.1815E+06
   8917      1     52     43       11.14          0.1815E+06
   8918      1     52     44       10.56          0.1815E+06
   8919      1     52     45       9.880          0.1815E+06
   8920      1     52     46       8.850          0.1815E+06
   8921      1     52     47       7.480          0.1815E+06
   8922      1     52     48       7.530          0.1815E+06
   8923      1     52     49       7.780          0.1815E+06
   8924      1     52     50       7.650          0.1815E+06
   8925      1     52     51       7.820          0.1815E+06
   8926      1     52     52       7.840          0.1815E+06
   8927      1     52     53       7.900          0.1815E+06
   8928      1     52     54       7.980          0.1815E+06
   8929      1     52     55       8.090          0.1815E+06
   8930      1     52     56       8.150          0.1815E+06
   8931      1     52     57       8.220          0.1815E+06
   8932      1     52     58       8.350          0.1815E+06
   8933      1     52     59       8.510          0.1815E+06
   8934      1     52     60       8.860          0.1815E+06
   8935      1     52     61       9.140          0.1815E+06
   8936      1     52     62       9.050          0.1815E+06
   8937      1     52     63       9.270          0.1815E+06
   8938      1     52     64       9.680          0.1815E+06
   8939      1     52     65       9.920          0.1815E+06
   8940      1     52     66       12.92          0.1815E+06
   8941      1     52     67       13.20          0.1815E+06
   8942      1     52     68       11.40          0.1815E+06
   8943      1     52     69       10.70          0.1815E+06
   8944      1     52     70       11.70          0.1815E+06
   8945      1     52     71       12.90          0.1815E+06
   8946      1     52     72       13.70          0.1815E+06
   8947      1     52     73       14.50          0.1815E+06
   8948      1     52     74       16.30          0.1815E+06
   8949      1     52     75       14.80          0.1815E+06
   8950      1     52     76       15.30          0.1815E+06
   8951      1     52     77       17.10          0.1815E+06
   8952      1     52     78       19.50          0.1815E+06
   8953      1     52     79       22.50          0.1815E+06
   8954      1     52     80       22.70          0.1815E+06
   8955      1     52     81       21.40          0.1815E+06
   8956      1     52     82       18.90          0.1815E+06
   8957      1     52     83       17.90          0.1815E+06
   8958      1     52     84       17.80          0.1815E+06
   8959      1     52     85       18.30          0.1815E+06
   8960      1     52     86       19.70          0.1815E+06
   8961      1     52     87       20.90          0.1815E+06
   8962      1     52     88       21.00          0.1815E+06
   8963      1     52     89       21.40          0.1815E+06
   8964      1     52     90       21.60          0.1815E+06
   8965      1     52     91       21.70          0.1815E+06
   8966      1     52     92       22.10          0.1815E+06
   8967      1     52     93       22.60          0.1815E+06
   8968      1     52     94       23.50          0.1815E+06
   8969      1     52     95       23.70          0.1815E+06
   8970      1     52     96       23.70          0.1815E+06
   8971      1     52     97       24.30          0.1815E+06
   8972      1     52     98       25.60          0.1815E+06
   8973      1     52     99       27.30          0.1815E+06
   8974      1     52    100       28.80          0.1815E+06
   8975      1     52    101       29.80          0.1815E+06
   8976      1     52    102       29.30          0.1815E+06
   8977      1     52    103       31.90          0.1815E+06
   8978      1     52    104       35.20          0.1815E+06
   8979      1     52    105       36.10          0.1815E+06
   8980      1     52    106       35.90          0.1815E+06
   8981      1     52    107       36.00          0.1815E+06
   8982      1     52    108       36.20          0.1815E+06
   8983      1     52    109       36.50          0.1815E+06
   8984      1     52    110       36.90          0.1815E+06
   8985      1     52    111       37.30          0.1815E+06
   8986      1     52    112       37.90          0.1815E+06
   8987      1     52    113       38.30          0.1815E+06
   8988      1     52    114       38.70          0.1815E+06
   8989      1     52    115       38.90          0.1815E+06
   8990      1     52    116       39.20          0.1815E+06
   8991      1     52    117       39.40          0.1815E+06
   8992      1     52    118       38.60          0.1815E+06
   8993      1     52    119       38.20          0.1815E+06
   8994      1     52    120       39.90          0.1815E+06
   8995      1     52    121       41.10          0.1815E+06
   8996      1     52    122       40.70          0.1815E+06
   8997      1     52    123       40.50          0.1815E+06
   8998      1     52    124       40.60          0.1815E+06
   8999      1     52    125       40.60          0.1815E+06
   9000      1     52    126       40.60          0.1815E+06
   9001      1     52    127       40.60          0.1815E+06
   9002      1     52    128       40.60          0.1815E+06
   9003      1     52    129       40.60          0.1815E+06
   9004      1     52    130       39.60          0.1815E+06
   9005      1     52    131       38.40          0.1815E+06
   9006      1     52    132       37.60          0.1815E+06
   9007      1     52    133       36.80          0.1815E+06
   9008      1     52    134       35.50          0.1815E+06
   9009      1     52    135       34.20          0.1815E+06
   9010      1     52    136       33.90          0.1815E+06
   9011      1     52    137       33.80          0.1815E+06
   9012      1     52    138       33.40          0.1815E+06
   9013      1     52    139       31.60          0.1815E+06
   9014      1     52    140       28.60          0.1815E+06
   9015      1     52    141       25.90          0.1815E+06
   9016      1     52    142       23.90          0.1815E+06
   9017      1     52    143       23.50          0.1815E+06
   9018      1     52    144       23.80          0.1815E+06
   9019      1     52    145       24.20          0.1815E+06
   9020      1     52    146       24.60          0.1815E+06
   9021      1     52    147       24.40          0.1815E+06
   9022      1     52    148       23.10          0.1815E+06
   9023      1     52    149       22.40          0.1815E+06
   9024      1     52    150       23.00          0.1815E+06
   9025      1     52    151       23.70          0.1815E+06
   9026      1     52    152       24.90          0.1815E+06
   9027      1     52    153       27.00          0.1815E+06
   9028      1     52    154       28.80          0.1815E+06
   9029      1     52    155       30.00          0.1815E+06
   9030      1     52    156       31.30          0.1815E+06
   9031      1     52    157       32.20          0.1815E+06
   9032      1     52    158       32.40          0.1815E+06
   9033      1     52    159       32.40          0.1815E+06
   9034      1     52    160       33.40          0.1815E+06
   9035      1     52    161       34.90          0.1815E+06
   9036      1     52    162       36.20          0.1815E+06
   9037      1     52    163       36.10          0.1815E+06
   9038      1     52    164       35.40          0.1815E+06
   9039      1     52    165       32.70          0.1815E+06
   9040      1     52    166       27.00          0.1815E+06
   9041      1     52    167       27.50          0.1815E+06
   9042      1     52    168       32.90          0.1815E+06
   9043      1     52    169       34.70          0.1815E+06
   9044      1     52    170       36.80          0.1815E+06
   9045      1     52    171       37.20          0.1815E+06
   9046      1     52    172       37.10          0.1815E+06
   9047      1     52    173       37.30          0.1815E+06
   9048      1     52    174       37.30          0.1815E+06
   9049      1     53      1      -7.270          0.1815E+06
   9050      1     53      2      -6.670          0.1815E+06
   9051      1     53      3      -6.670          0.1815E+06
   9052      1     53      4      -6.490          0.1815E+06
   9053      1     53      5      -6.370          0.1815E+06
   9054      1     53      6      -4.900          0.1815E+06
   9055      1     53      7      -4.300          0.1815E+06
   9056      1     53      8      -4.930          0.1815E+06
   9057      1     53      9      -4.930          0.1815E+06
   9058      1     53     10      -4.610          0.1815E+06
   9059      1     53     11      -4.160          0.1815E+06
   9060      1     53     12      -4.080          0.1815E+06
   9061      1     53     13      -4.140          0.1815E+06
   9062      1     53     14      -3.830          0.1815E+06
   9063      1     53     15      -3.830          0.1815E+06
   9064      1     53     16      -3.370          0.1815E+06
   9065      1     53     17     -0.6600          0.1815E+06
   9066      1     53     18      0.4300          0.1815E+06
   9067      1     53     19       1.430          0.1815E+06
   9068      1     53     20       2.430          0.1815E+06
   9069      1     53     21       2.430          0.1815E+06
   9070      1     53     22       6.430          0.1815E+06
   9071      1     53     23       8.060          0.1815E+06
   9072      1     53     24       9.770          0.1815E+06
   9073      1     53     25       8.220          0.1815E+06
   9074      1     53     26       8.130          0.1815E+06
   9075      1     53     27       8.480          0.1815E+06
   9076      1     53     28       9.300          0.1815E+06
   9077      1     53     29       9.820          0.1815E+06
   9078      1     53     30       10.46          0.1815E+06
   9079      1     53     31       11.10          0.1815E+06
   9080      1     53     32       11.30          0.1815E+06
   9081      1     53     33       11.56          0.1815E+06
   9082      1     53     34       11.85          0.1815E+06
   9083      1     53     35       12.26          0.1815E+06
   9084      1     53     36       12.71          0.1815E+06
   9085      1     53     37       11.96          0.1815E+06
   9086      1     53     38       11.97          0.1815E+06
   9087      1     53     39       11.96          0.1815E+06
   9088      1     53     40       11.93          0.1815E+06
   9089      1     53     41       11.77          0.1815E+06
   9090      1     53     42       11.61          0.1815E+06
   9091      1     53     43       11.10          0.1815E+06
   9092      1     53     44       10.84          0.1815E+06
   9093      1     53     45       9.350          0.1815E+06
   9094      1     53     46       7.320          0.1815E+06
   9095      1     53     47       8.570          0.1815E+06
   9096      1     53     48       7.400          0.1815E+06
   9097      1     53     49       7.460          0.1815E+06
   9098      1     53     50       7.710          0.1815E+06
   9099      1     53     51       7.760          0.1815E+06
   9100      1     53     52       8.960          0.1815E+06
   9101      1     53     53       8.570          0.1815E+06
   9102      1     53     54       10.93          0.1815E+06
   9103      1     53     55       12.77          0.1815E+06
   9104      1     53     56       13.31          0.1815E+06
   9105      1     53     57       13.77          0.1815E+06
   9106      1     53     58       15.52          0.1815E+06
   9107      1     53     59       15.39          0.1815E+06
   9108      1     53     60       13.94          0.1815E+06
   9109      1     53     61       12.15          0.1815E+06
   9110      1     53     62       10.64          0.1815E+06
   9111      1     53     63       10.49          0.1815E+06
   9112      1     53     64       10.15          0.1815E+06
   9113      1     53     65       10.17          0.1815E+06
   9114      1     53     66       13.78          0.1815E+06
   9115      1     53     67       13.00          0.1815E+06
   9116      1     53     68       11.60          0.1815E+06
   9117      1     53     69       11.40          0.1815E+06
   9118      1     53     70       12.60          0.1815E+06
   9119      1     53     71       13.90          0.1815E+06
   9120      1     53     72       14.40          0.1815E+06
   9121      1     53     73       14.30          0.1815E+06
   9122      1     53     74       14.80          0.1815E+06
   9123      1     53     75       17.60          0.1815E+06
   9124      1     53     76       21.40          0.1815E+06
   9125      1     53     77       21.80          0.1815E+06
   9126      1     53     78       21.70          0.1815E+06
   9127      1     53     79       24.30          0.1815E+06
   9128      1     53     80       25.70          0.1815E+06
   9129      1     53     81       25.00          0.1815E+06
   9130      1     53     82       22.40          0.1815E+06
   9131      1     53     83       19.60          0.1815E+06
   9132      1     53     84       18.40          0.1815E+06
   9133      1     53     85       18.80          0.1815E+06
   9134      1     53     86       19.50          0.1815E+06
   9135      1     53     87       19.80          0.1815E+06
   9136      1     53     88       19.90          0.1815E+06
   9137      1     53     89       20.10          0.1815E+06
   9138      1     53     90       20.70          0.1815E+06
   9139      1     53     91       21.60          0.1815E+06
   9140      1     53     92       22.10          0.1815E+06
   9141      1     53     93       22.70          0.1815E+06
   9142      1     53     94       23.80          0.1815E+06
   9143      1     53     95       24.60          0.1815E+06
   9144      1     53     96       24.60          0.1815E+06
   9145      1     53     97       24.10          0.1815E+06
   9146      1     53     98       24.20          0.1815E+06
   9147      1     53     99       24.30          0.1815E+06
   9148      1     53    100       24.50          0.1815E+06
   9149      1     53    101       25.50          0.1815E+06
   9150      1     53    102       27.20          0.1815E+06
   9151      1     53    103       29.50          0.1815E+06
   9152      1     53    104       32.00          0.1815E+06
   9153      1     53    105       33.60          0.1815E+06
   9154      1     53    106       33.70          0.1815E+06
   9155      1     53    107       33.60          0.1815E+06
   9156      1     53    108       35.00          0.1815E+06
   9157      1     53    109       36.40          0.1815E+06
   9158      1     53    110       36.60          0.1815E+06
   9159      1     53    111       36.80          0.1815E+06
   9160      1     53    112       37.40          0.1815E+06
   9161      1     53    113       37.60          0.1815E+06
   9162      1     53    114       37.70          0.1815E+06
   9163      1     53    115       37.90          0.1815E+06
   9164      1     53    116       37.90          0.1815E+06
   9165      1     53    117       37.80          0.1815E+06
   9166      1     53    118       36.40          0.1815E+06
   9167      1     53    119       36.20          0.1815E+06
   9168      1     53    120       38.00          0.1815E+06
   9169      1     53    121       40.50          0.1815E+06
   9170      1     53    122       41.00          0.1815E+06
   9171      1     53    123       40.60          0.1815E+06
   9172      1     53    124       40.40          0.1815E+06
   9173      1     53    125       40.50          0.1815E+06
   9174      1     53    126       40.50          0.1815E+06
   9175      1     53    127       40.00          0.1815E+06
   9176      1     53    128       39.60          0.1815E+06
   9177      1     53    129       39.50          0.1815E+06
   9178      1     53    130       38.50          0.1815E+06
   9179      1     53    131       37.30          0.1815E+06
   9180      1     53    132       36.80          0.1815E+06
   9181      1     53    133       36.80          0.1815E+06
   9182      1     53    134       36.20          0.1815E+06
   9183      1     53    135       35.60          0.1815E+06
   9184      1     53    136       35.40          0.1815E+06
   9185      1     53    137       35.60          0.1815E+06
   9186      1     53    138       35.40          0.1815E+06
   9187      1     53    139       32.80          0.1815E+06
   9188      1     53    140       28.60          0.1815E+06
   9189      1     53    141       25.80          0.1815E+06
   9190      1     53    142       24.20          0.1815E+06
   9191      1     53    143       24.40          0.1815E+06
   9192      1     53    144       25.10          0.1815E+06
   9193      1     53    145       25.20          0.1815E+06
   9194      1     53    146       24.80          0.1815E+06
   9195      1     53    147       24.30          0.1815E+06
   9196      1     53    148       22.60          0.1815E+06
   9197      1     53    149       21.50          0.1815E+06
   9198      1     53    150       25.80          0.1815E+06
   9199      1     53    151       27.70          0.1815E+06
   9200      1     53    152       28.90          0.1815E+06
   9201      1     53    153       30.50          0.1815E+06
   9202      1     53    154       32.50          0.1815E+06
   9203      1     53    155       33.90          0.1815E+06
   9204      1     53    156       34.60          0.1815E+06
   9205      1     53    157       35.60          0.1815E+06
   9206      1     53    158       35.20          0.1815E+06
   9207      1     53    159       35.30          0.1815E+06
   9208      1     53    160       36.70          0.1815E+06
   9209      1     53    161       37.70          0.1815E+06
   9210      1     53    162       37.90          0.1815E+06
   9211      1     53    163       37.50          0.1815E+06
   9212      1     53    164       36.50          0.1815E+06
   9213      1     53    165       34.00          0.1815E+06
   9214      1     53    166       30.10          0.1815E+06
   9215      1     53    167       27.70          0.1815E+06
   9216      1     53    168       31.70          0.1815E+06
   9217      1     53    169       34.20          0.1815E+06
   9218      1     53    170       36.50          0.1815E+06
   9219      1     53    171       37.70          0.1815E+06
   9220      1     53    172       38.10          0.1815E+06
   9221      1     53    173       38.30          0.1815E+06
   9222      1     53    174       38.50          0.1815E+06
   9223      1     54      1      -7.270          0.1815E+06
   9224      1     54      2      -6.670          0.1815E+06
   9225      1     54      3      -6.670          0.1815E+06
   9226      1     54      4      -6.490          0.1815E+06
   9227      1     54      5      -6.370          0.1815E+06
   9228      1     54      6      -4.900          0.1815E+06
   9229      1     54      7      -4.300          0.1815E+06
   9230      1     54      8      -4.930          0.1815E+06
   9231      1     54      9      -4.930          0.1815E+06
   9232      1     54     10      -4.610          0.1815E+06
   9233      1     54     11      -4.160          0.1815E+06
   9234      1     54     12      -4.080          0.1815E+06
   9235      1     54     13      -4.140          0.1815E+06
   9236      1     54     14      -3.830          0.1815E+06
   9237      1     54     15      -3.830          0.1815E+06
   9238      1     54     16      -3.370          0.1815E+06
   9239      1     54     17     -0.6600          0.1815E+06
   9240      1     54     18      0.4300          0.1815E+06
   9241      1     54     19       1.430          0.1815E+06
   9242      1     54     20       2.430          0.1815E+06
   9243      1     54     21       2.430          0.1815E+06
   9244      1     54     22       6.430          0.1815E+06
   9245      1     54     23       11.89          0.1815E+06
   9246      1     54     24       8.220          0.1815E+06
   9247      1     54     25       8.110          0.1815E+06
   9248      1     54     26       8.760          0.1815E+06
   9249      1     54     27       9.230          0.1815E+06
   9250      1     54     28       10.07          0.1815E+06
   9251      1     54     29       9.930          0.1815E+06
   9252      1     54     30       11.32          0.1815E+06
   9253      1     54     31       10.97          0.1815E+06
   9254      1     54     32       11.05          0.1815E+06
   9255      1     54     33       11.55          0.1815E+06
   9256      1     54     34       11.26          0.1815E+06
   9257      1     54     35       11.85          0.1815E+06
   9258      1     54     36       11.69          0.1815E+06
   9259      1     54     37       11.63          0.1815E+06
   9260      1     54     38       11.81          0.1815E+06
   9261      1     54     39       11.77          0.1815E+06
   9262      1     54     40       11.68          0.1815E+06
   9263      1     54     41       11.34          0.1815E+06
   9264      1     54     42       11.07          0.1815E+06
   9265      1     54     43       10.82          0.1815E+06
   9266      1     54     44       9.650          0.1815E+06
   9267      1     54     45       8.850          0.1815E+06
   9268      1     54     46       7.570          0.1815E+06
   9269      1     54     47       7.570          0.1815E+06
   9270      1     54     48       7.440          0.1815E+06
   9271      1     54     49       7.420          0.1815E+06
   9272      1     54     50       10.47          0.1815E+06
   9273      1     54     51       12.77          0.1815E+06
   9274      1     54     52       12.56          0.1815E+06
   9275      1     54     53       10.00          0.1815E+06
   9276      1     54     54       13.60          0.1815E+06
   9277      1     54     55       15.25          0.1815E+06
   9278      1     54     56       16.17          0.1815E+06
   9279      1     54     57       16.70          0.1815E+06
   9280      1     54     58       17.48          0.1815E+06
   9281      1     54     59       17.80          0.1815E+06
   9282      1     54     60       18.18          0.1815E+06
   9283      1     54     61       19.23          0.1815E+06
   9284      1     54     62       19.61          0.1815E+06
   9285      1     54     63       18.00          0.1815E+06
   9286      1     54     64       18.00          0.1815E+06
   9287      1     54     65       15.60          0.1815E+06
   9288      1     54     66       17.00          0.1815E+06
   9289      1     54     67       18.90          0.1815E+06
   9290      1     54     68       16.70          0.1815E+06
   9291      1     54     69       15.00          0.1815E+06
   9292      1     54     70       16.30          0.1815E+06
   9293      1     54     71       18.10          0.1815E+06
   9294      1     54     72       20.00          0.1815E+06
   9295      1     54     73       20.40          0.1815E+06
   9296      1     54     74       20.10          0.1815E+06
   9297      1     54     75       22.70          0.1815E+06
   9298      1     54     76       24.10          0.1815E+06
   9299      1     54     77       24.90          0.1815E+06
   9300      1     54     78       25.10          0.1815E+06
   9301      1     54     79       27.70          0.1815E+06
   9302      1     54     80       30.10          0.1815E+06
   9303      1     54     81       29.80          0.1815E+06
   9304      1     54     82       27.30          0.1815E+06
   9305      1     54     83       24.10          0.1815E+06
   9306      1     54     84       22.00          0.1815E+06
   9307      1     54     85       20.80          0.1815E+06
   9308      1     54     86       22.40          0.1815E+06
   9309      1     54     87       22.70          0.1815E+06
   9310      1     54     88       23.00          0.1815E+06
   9311      1     54     89       22.60          0.1815E+06
   9312      1     54     90       22.50          0.1815E+06
   9313      1     54     91       22.80          0.1815E+06
   9314      1     54     92       23.00          0.1815E+06
   9315      1     54     93       23.50          0.1815E+06
   9316      1     54     94       24.20          0.1815E+06
   9317      1     54     95       25.80          0.1815E+06
   9318      1     54     96       26.10          0.1815E+06
   9319      1     54     97       26.00          0.1815E+06
   9320      1     54     98       25.60          0.1815E+06
   9321      1     54     99       24.70          0.1815E+06
   9322      1     54    100       23.10          0.1815E+06
   9323      1     54    101       22.90          0.1815E+06
   9324      1     54    102       23.90          0.1815E+06
   9325      1     54    103       26.30          0.1815E+06
   9326      1     54    104       28.30          0.1815E+06
   9327      1     54    105       29.80          0.1815E+06
   9328      1     54    106       30.20          0.1815E+06
   9329      1     54    107       30.20          0.1815E+06
   9330      1     54    108       33.20          0.1815E+06
   9331      1     54    109       35.80          0.1815E+06
   9332      1     54    110       36.70          0.1815E+06
   9333      1     54    111       36.80          0.1815E+06
   9334      1     54    112       37.00          0.1815E+06
   9335      1     54    113       37.10          0.1815E+06
   9336      1     54    114       37.00          0.1815E+06
   9337      1     54    115       37.00          0.1815E+06
   9338      1     54    116       37.10          0.1815E+06
   9339      1     54    117       36.90          0.1815E+06
   9340      1     54    118       35.20          0.1815E+06
   9341      1     54    119       35.00          0.1815E+06
   9342      1     54    120       37.30          0.1815E+06
   9343      1     54    121       39.40          0.1815E+06
   9344      1     54    122       40.50          0.1815E+06
   9345      1     54    123       40.40          0.1815E+06
   9346      1     54    124       39.90          0.1815E+06
   9347      1     54    125       39.80          0.1815E+06
   9348      1     54    126       39.80          0.1815E+06
   9349      1     54    127       39.10          0.1815E+06
   9350      1     54    128       38.60          0.1815E+06
   9351      1     54    129       38.30          0.1815E+06
   9352      1     54    130       37.40          0.1815E+06
   9353      1     54    131       35.70          0.1815E+06
   9354      1     54    132       35.20          0.1815E+06
   9355      1     54    133       35.60          0.1815E+06
   9356      1     54    134       36.20          0.1815E+06
   9357      1     54    135       36.30          0.1815E+06
   9358      1     54    136       36.20          0.1815E+06
   9359      1     54    137       36.40          0.1815E+06
   9360      1     54    138       36.10          0.1815E+06
   9361      1     54    139       32.60          0.1815E+06
   9362      1     54    140       28.70          0.1815E+06
   9363      1     54    141       26.10          0.1815E+06
   9364      1     54    142       25.00          0.1815E+06
   9365      1     54    143       25.70          0.1815E+06
   9366      1     54    144       25.90          0.1815E+06
   9367      1     54    145       25.80          0.1815E+06
   9368      1     54    146       25.00          0.1815E+06
   9369      1     54    147       24.20          0.1815E+06
   9370      1     54    148       23.80          0.1815E+06
   9371      1     54    149       25.80          0.1815E+06
   9372      1     54    150       29.90          0.1815E+06
   9373      1     54    151       34.00          0.1815E+06
   9374      1     54    152       34.10          0.1815E+06
   9375      1     54    153       33.80          0.1815E+06
   9376      1     54    154       35.30          0.1815E+06
   9377      1     54    155       36.90          0.1815E+06
   9378      1     54    156       37.50          0.1815E+06
   9379      1     54    157       38.20          0.1815E+06
   9380      1     54    158       38.20          0.1815E+06
   9381      1     54    159       39.00          0.1815E+06
   9382      1     54    160       40.20          0.1815E+06
   9383      1     54    161       40.60          0.1815E+06
   9384      1     54    162       39.10          0.1815E+06
   9385      1     54    163       37.80          0.1815E+06
   9386      1     54    164       37.10          0.1815E+06
   9387      1     54    165       34.50          0.1815E+06
   9388      1     54    166       31.20          0.1815E+06
   9389      1     54    167       30.30          0.1815E+06
   9390      1     54    168       30.00          0.1815E+06
   9391      1     54    169       32.90          0.1815E+06
   9392      1     54    170       34.20          0.1815E+06
   9393      1     54    171       36.20          0.1815E+06
   9394      1     54    172       38.10          0.1815E+06
   9395      1     54    173       39.30          0.1815E+06
   9396      1     54    174       39.70          0.1815E+06
   9397      1     55      1      -6.470          0.1815E+06
   9398      1     55      2      -6.520          0.1815E+06
   9399      1     55      3      -6.520          0.1815E+06
   9400      1     55      4      -7.370          0.1815E+06
   9401      1     55      5      -6.970          0.1815E+06
   9402      1     55      6      -4.900          0.1815E+06
   9403      1     55      7      -4.300          0.1815E+06
   9404      1     55      8      -4.930          0.1815E+06
   9405      1     55      9      -4.930          0.1815E+06
   9406      1     55     10      -4.800          0.1815E+06
   9407      1     55     11      -4.570          0.1815E+06
   9408      1     55     12      -3.970          0.1815E+06
   9409      1     55     13      -3.870          0.1815E+06
   9410      1     55     14      -3.670          0.1815E+06
   9411      1     55     15      -3.670          0.1815E+06
   9412      1     55     16      -3.970          0.1815E+06
   9413      1     55     17      -2.340          0.1815E+06
   9414      1     55     18     -0.9800          0.1815E+06
   9415      1     55     19      0.4200          0.1815E+06
   9416      1     55     20      0.4300          0.1815E+06
   9417      1     55     21      0.4300          0.1815E+06
   9418      1     55     22       4.440          0.1815E+06
   9419      1     55     23       8.440          0.1815E+06
   9420      1     55     24       8.010          0.1815E+06
   9421      1     55     25       9.890          0.1815E+06
   9422      1     55     26       9.310          0.1815E+06
   9423      1     55     27       9.560          0.1815E+06
   9424      1     55     28       9.930          0.1815E+06
   9425      1     55     29       10.05          0.1815E+06
   9426      1     55     30       11.82          0.1815E+06
   9427      1     55     31       11.39          0.1815E+06
   9428      1     55     32       11.26          0.1815E+06
   9429      1     55     33       11.76          0.1815E+06
   9430      1     55     34       11.50          0.1815E+06
   9431      1     55     35       11.52          0.1815E+06
   9432      1     55     36       11.55          0.1815E+06
   9433      1     55     37       11.35          0.1815E+06
   9434      1     55     38       11.40          0.1815E+06
   9435      1     55     39       11.81          0.1815E+06
   9436      1     55     40       11.34          0.1815E+06
   9437      1     55     41       11.31          0.1815E+06
   9438      1     55     42       10.89          0.1815E+06
   9439      1     55     43       10.39          0.1815E+06
   9440      1     55     44       9.140          0.1815E+06
   9441      1     55     45       7.250          0.1815E+06
   9442      1     55     46       7.320          0.1815E+06
   9443      1     55     47       7.400          0.1815E+06
   9444      1     55     48       8.310          0.1815E+06
   9445      1     55     49       8.670          0.1815E+06
   9446      1     55     50       12.57          0.1815E+06
   9447      1     55     51       13.47          0.1815E+06
   9448      1     55     52       12.86          0.1815E+06
   9449      1     55     53       12.39          0.1815E+06
   9450      1     55     54       13.38          0.1815E+06
   9451      1     55     55       15.35          0.1815E+06
   9452      1     55     56       16.02          0.1815E+06
   9453      1     55     57       16.63          0.1815E+06
   9454      1     55     58       17.51          0.1815E+06
   9455      1     55     59       18.67          0.1815E+06
   9456      1     55     60       19.59          0.1815E+06
   9457      1     55     61       20.12          0.1815E+06
   9458      1     55     62       20.15          0.1815E+06
   9459      1     55     63       20.30          0.1815E+06
   9460      1     55     64       21.05          0.1815E+06
   9461      1     55     65       19.54          0.1815E+06
   9462      1     55     66       19.10          0.1815E+06
   9463      1     55     67       22.20          0.1815E+06
   9464      1     55     68       23.90          0.1815E+06
   9465      1     55     69       23.40          0.1815E+06
   9466      1     55     70       23.10          0.1815E+06
   9467      1     55     71       23.00          0.1815E+06
   9468      1     55     72       23.70          0.1815E+06
   9469      1     55     73       24.50          0.1815E+06
   9470      1     55     74       25.30          0.1815E+06
   9471      1     55     75       26.80          0.1815E+06
   9472      1     55     76       27.10          0.1815E+06
   9473      1     55     77       27.70          0.1815E+06
   9474      1     55     78       28.30          0.1815E+06
   9475      1     55     79       30.20          0.1815E+06
   9476      1     55     80       32.00          0.1815E+06
   9477      1     55     81       32.10          0.1815E+06
   9478      1     55     82       30.90          0.1815E+06
   9479      1     55     83       29.10          0.1815E+06
   9480      1     55     84       27.80          0.1815E+06
   9481      1     55     85       25.30          0.1815E+06
   9482      1     55     86       25.80          0.1815E+06
   9483      1     55     87       26.50          0.1815E+06
   9484      1     55     88       25.50          0.1815E+06
   9485      1     55     89       26.20          0.1815E+06
   9486      1     55     90       25.80          0.1815E+06
   9487      1     55     91       25.20          0.1815E+06
   9488      1     55     92       24.90          0.1815E+06
   9489      1     55     93       24.80          0.1815E+06
   9490      1     55     94       24.80          0.1815E+06
   9491      1     55     95       25.40          0.1815E+06
   9492      1     55     96       26.70          0.1815E+06
   9493      1     55     97       27.00          0.1815E+06
   9494      1     55     98       26.60          0.1815E+06
   9495      1     55     99       25.50          0.1815E+06
   9496      1     55    100       23.20          0.1815E+06
   9497      1     55    101       22.30          0.1815E+06
   9498      1     55    102       22.70          0.1815E+06
   9499      1     55    103       23.90          0.1815E+06
   9500      1     55    104       25.40          0.1815E+06
   9501      1     55    105       27.10          0.1815E+06
   9502      1     55    106       27.30          0.1815E+06
   9503      1     55    107       27.00          0.1815E+06
   9504      1     55    108       28.50          0.1815E+06
   9505      1     55    109       31.80          0.1815E+06
   9506      1     55    110       34.50          0.1815E+06
   9507      1     55    111       35.30          0.1815E+06
   9508      1     55    112       34.90          0.1815E+06
   9509      1     55    113       35.00          0.1815E+06
   9510      1     55    114       35.80          0.1815E+06
   9511      1     55    115       35.90          0.1815E+06
   9512      1     55    116       36.50          0.1815E+06
   9513      1     55    117       36.40          0.1815E+06
   9514      1     55    118       35.10          0.1815E+06
   9515      1     55    119       34.20          0.1815E+06
   9516      1     55    120       36.70          0.1815E+06
   9517      1     55    121       38.50          0.1815E+06
   9518      1     55    122       39.40          0.1815E+06
   9519      1     55    123       39.20          0.1815E+06
   9520      1     55    124       38.60          0.1815E+06
   9521      1     55    125       38.20          0.1815E+06
   9522      1     55    126       38.20          0.1815E+06
   9523      1     55    127       38.00          0.1815E+06
   9524      1     55    128       37.60          0.1815E+06
   9525      1     55    129       37.40          0.1815E+06
   9526      1     55    130       37.00          0.1815E+06
   9527      1     55    131       36.20          0.1815E+06
   9528      1     55    132       34.80          0.1815E+06
   9529      1     55    133       34.20          0.1815E+06
   9530      1     55    134       36.10          0.1815E+06
   9531      1     55    135       36.00          0.1815E+06
   9532      1     55    136       35.20          0.1815E+06
   9533      1     55    137       34.40          0.1815E+06
   9534      1     55    138       33.20          0.1815E+06
   9535      1     55    139       30.90          0.1815E+06
   9536      1     55    140       25.70          0.1815E+06
   9537      1     55    141       26.40          0.1815E+06
   9538      1     55    142       26.20          0.1815E+06
   9539      1     55    143       26.60          0.1815E+06
   9540      1     55    144       26.00          0.1815E+06
   9541      1     55    145       25.50          0.1815E+06
   9542      1     55    146       24.70          0.1815E+06
   9543      1     55    147       24.20          0.1815E+06
   9544      1     55    148       25.70          0.1815E+06
   9545      1     55    149       28.70          0.1815E+06
   9546      1     55    150       33.00          0.1815E+06
   9547      1     55    151       36.10          0.1815E+06
   9548      1     55    152       37.00          0.1815E+06
   9549      1     55    153       36.60          0.1815E+06
   9550      1     55    154       37.20          0.1815E+06
   9551      1     55    155       38.60          0.1815E+06
   9552      1     55    156       40.00          0.1815E+06
   9553      1     55    157       40.60          0.1815E+06
   9554      1     55    158       40.40          0.1815E+06
   9555      1     55    159       40.40          0.1815E+06
   9556      1     55    160       40.90          0.1815E+06
   9557      1     55    161       41.00          0.1815E+06
   9558      1     55    162       39.60          0.1815E+06
   9559      1     55    163       38.00          0.1815E+06
   9560      1     55    164       36.50          0.1815E+06
   9561      1     55    165       35.20          0.1815E+06
   9562      1     55    166       35.80          0.1815E+06
   9563      1     55    167       33.10          0.1815E+06
   9564      1     55    168       32.50          0.1815E+06
   9565      1     55    169       34.50          0.1815E+06
   9566      1     55    170       34.80          0.1815E+06
   9567      1     55    171       35.10          0.1815E+06
   9568      1     55    172       37.90          0.1815E+06
   9569      1     55    173       40.70          0.1815E+06
   9570      1     55    174       41.30          0.1815E+06
   9571      1     56      1      -6.470          0.1815E+06
   9572      1     56      2      -6.520          0.1815E+06
   9573      1     56      3      -6.520          0.1815E+06
   9574      1     56      4      -7.370          0.1815E+06
   9575      1     56      5      -6.970          0.1815E+06
   9576      1     56      6      -5.670          0.1815E+06
   9577      1     56      7      -5.570          0.1815E+06
   9578      1     56      8      -5.770          0.1815E+06
   9579      1     56      9      -5.770          0.1815E+06
   9580      1     56     10      -4.930          0.1815E+06
   9581      1     56     11      -4.400          0.1815E+06
   9582      1     56     12      -4.200          0.1815E+06
   9583      1     56     13      -3.900          0.1815E+06
   9584      1     56     14      -3.420          0.1815E+06
   9585      1     56     15      -3.420          0.1815E+06
   9586      1     56     16      -3.570          0.1815E+06
   9587      1     56     17      -2.870          0.1815E+06
   9588      1     56     18      -2.270          0.1815E+06
   9589      1     56     19     -0.8700          0.1815E+06
   9590      1     56     20       1.430          0.1815E+06
   9591      1     56     21       1.430          0.1815E+06
   9592      1     56     22       3.430          0.1815E+06
   9593      1     56     23       5.930          0.1815E+06
   9594      1     56     24       10.01          0.1815E+06
   9595      1     56     25       6.980          0.1815E+06
   9596      1     56     26       8.600          0.1815E+06
   9597      1     56     27       9.500          0.1815E+06
   9598      1     56     28       9.750          0.1815E+06
   9599      1     56     29       11.36          0.1815E+06
   9600      1     56     30       12.72          0.1815E+06
   9601      1     56     31       12.94          0.1815E+06
   9602      1     56     32       11.31          0.1815E+06
   9603      1     56     33       11.06          0.1815E+06
   9604      1     56     34       11.17          0.1815E+06
   9605      1     56     35       11.18          0.1815E+06
   9606      1     56     36       11.34          0.1815E+06
   9607      1     56     37       11.21          0.1815E+06
   9608      1     56     38       11.28          0.1815E+06
   9609      1     56     39       11.17          0.1815E+06
   9610      1     56     40       11.36          0.1815E+06
   9611      1     56     41       11.27          0.1815E+06
   9612      1     56     42       10.27          0.1815E+06
   9613      1     56     43       9.810          0.1815E+06
   9614      1     56     44       8.750          0.1815E+06
   9615      1     56     45       8.750          0.1815E+06
   9616      1     56     46       11.89          0.1815E+06
   9617      1     56     47       12.61          0.1815E+06
   9618      1     56     48       12.60          0.1815E+06
   9619      1     56     49       10.68          0.1815E+06
   9620      1     56     50       13.02          0.1815E+06
   9621      1     56     51       14.13          0.1815E+06
   9622      1     56     52       13.94          0.1815E+06
   9623      1     56     53       14.07          0.1815E+06
   9624      1     56     54       13.94          0.1815E+06
   9625      1     56     55       14.94          0.1815E+06
   9626      1     56     56       16.46          0.1815E+06
   9627      1     56     57       16.23          0.1815E+06
   9628      1     56     58       17.72          0.1815E+06
   9629      1     56     59       18.32          0.1815E+06
   9630      1     56     60       19.05          0.1815E+06
   9631      1     56     61       19.70          0.1815E+06
   9632      1     56     62       19.95          0.1815E+06
   9633      1     56     63       20.90          0.1815E+06
   9634      1     56     64       22.23          0.1815E+06
   9635      1     56     65       22.51          0.1815E+06
   9636      1     56     66       22.77          0.1815E+06
   9637      1     56     67       24.60          0.1815E+06
   9638      1     56     68       27.00          0.1815E+06
   9639      1     56     69       28.90          0.1815E+06
   9640      1     56     70       30.20          0.1815E+06
   9641      1     56     71       29.50          0.1815E+06
   9642      1     56     72       29.70          0.1815E+06
   9643      1     56     73       31.10          0.1815E+06
   9644      1     56     74       32.10          0.1815E+06
   9645      1     56     75       31.60          0.1815E+06
   9646      1     56     76       31.20          0.1815E+06
   9647      1     56     77       31.60          0.1815E+06
   9648      1     56     78       31.30          0.1815E+06
   9649      1     56     79       31.70          0.1815E+06
   9650      1     56     80       32.70          0.1815E+06
   9651      1     56     81       33.10          0.1815E+06
   9652      1     56     82       32.80          0.1815E+06
   9653      1     56     83       32.40          0.1815E+06
   9654      1     56     84       31.60          0.1815E+06
   9655      1     56     85       30.20          0.1815E+06
   9656      1     56     86       28.90          0.1815E+06
   9657      1     56     87       29.90          0.1815E+06
   9658      1     56     88       29.90          0.1815E+06
   9659      1     56     89       29.20          0.1815E+06
   9660      1     56     90       29.20          0.1815E+06
   9661      1     56     91       28.60          0.1815E+06
   9662      1     56     92       28.00          0.1815E+06
   9663      1     56     93       27.20          0.1815E+06
   9664      1     56     94       26.00          0.1815E+06
   9665      1     56     95       25.90          0.1815E+06
   9666      1     56     96       27.30          0.1815E+06
   9667      1     56     97       27.40          0.1815E+06
   9668      1     56     98       26.50          0.1815E+06
   9669      1     56     99       25.00          0.1815E+06
   9670      1     56    100       23.40          0.1815E+06
   9671      1     56    101       23.00          0.1815E+06
   9672      1     56    102       23.10          0.1815E+06
   9673      1     56    103       23.10          0.1815E+06
   9674      1     56    104       23.40          0.1815E+06
   9675      1     56    105       24.30          0.1815E+06
   9676      1     56    106       25.10          0.1815E+06
   9677      1     56    107       24.40          0.1815E+06
   9678      1     56    108       25.50          0.1815E+06
   9679      1     56    109       27.50          0.1815E+06
   9680      1     56    110       29.00          0.1815E+06
   9681      1     56    111       30.50          0.1815E+06
   9682      1     56    112       29.90          0.1815E+06
   9683      1     56    113       30.00          0.1815E+06
   9684      1     56    114       31.80          0.1815E+06
   9685      1     56    115       33.10          0.1815E+06
   9686      1     56    116       34.70          0.1815E+06
   9687      1     56    117       35.10          0.1815E+06
   9688      1     56    118       33.80          0.1815E+06
   9689      1     56    119       33.50          0.1815E+06
   9690      1     56    120       35.80          0.1815E+06
   9691      1     56    121       37.80          0.1815E+06
   9692      1     56    122       37.80          0.1815E+06
   9693      1     56    123       37.10          0.1815E+06
   9694      1     56    124       36.50          0.1815E+06
   9695      1     56    125       36.50          0.1815E+06
   9696      1     56    126       36.90          0.1815E+06
   9697      1     56    127       36.90          0.1815E+06
   9698      1     56    128       36.60          0.1815E+06
   9699      1     56    129       36.50          0.1815E+06
   9700      1     56    130       36.60          0.1815E+06
   9701      1     56    131       36.00          0.1815E+06
   9702      1     56    132       34.70          0.1815E+06
   9703      1     56    133       33.70          0.1815E+06
   9704      1     56    134       34.90          0.1815E+06
   9705      1     56    135       33.60          0.1815E+06
   9706      1     56    136       30.90          0.1815E+06
   9707      1     56    137       29.40          0.1815E+06
   9708      1     56    138       29.00          0.1815E+06
   9709      1     56    139       28.50          0.1815E+06
   9710      1     56    140       25.60          0.1815E+06
   9711      1     56    141       25.20          0.1815E+06
   9712      1     56    142       26.90          0.1815E+06
   9713      1     56    143       26.70          0.1815E+06
   9714      1     56    144       25.40          0.1815E+06
   9715      1     56    145       25.10          0.1815E+06
   9716      1     56    146       24.40          0.1815E+06
   9717      1     56    147       24.40          0.1815E+06
   9718      1     56    148       27.50          0.1815E+06
   9719      1     56    149       31.30          0.1815E+06
   9720      1     56    150       34.50          0.1815E+06
   9721      1     56    151       36.50          0.1815E+06
   9722      1     56    152       37.30          0.1815E+06
   9723      1     56    153       37.80          0.1815E+06
   9724      1     56    154       38.70          0.1815E+06
   9725      1     56    155       40.20          0.1815E+06
   9726      1     56    156       40.60          0.1815E+06
   9727      1     56    157       40.70          0.1815E+06
   9728      1     56    158       40.70          0.1815E+06
   9729      1     56    159       40.50          0.1815E+06
   9730      1     56    160       40.50          0.1815E+06
   9731      1     56    161       40.80          0.1815E+06
   9732      1     56    162       39.90          0.1815E+06
   9733      1     56    163       38.70          0.1815E+06
   9734      1     56    164       38.10          0.1815E+06
   9735      1     56    165       37.70          0.1815E+06
   9736      1     56    166       37.30          0.1815E+06
   9737      1     56    167       35.10          0.1815E+06
   9738      1     56    168       34.90          0.1815E+06
   9739      1     56    169       36.70          0.1815E+06
   9740      1     56    170       37.70          0.1815E+06
   9741      1     56    171       38.40          0.1815E+06
   9742      1     56    172       39.70          0.1815E+06
   9743      1     56    173       42.00          0.1815E+06
   9744      1     56    174       43.40          0.1815E+06
   9745      1     57      1      -7.680          0.1815E+06
   9746      1     57      2      -7.780          0.1815E+06
   9747      1     57      3      -7.780          0.1815E+06
   9748      1     57      4      -6.770          0.1815E+06
   9749      1     57      5      -4.580          0.1815E+06
   9750      1     57      6      -5.540          0.1815E+06
   9751      1     57      7      -5.810          0.1815E+06
   9752      1     57      8      -5.580          0.1815E+06
   9753      1     57      9      -5.580          0.1815E+06
   9754      1     57     10      -4.580          0.1815E+06
   9755      1     57     11      -4.480          0.1815E+06
   9756      1     57     12      -4.480          0.1815E+06
   9757      1     57     13      -4.180          0.1815E+06
   9758      1     57     14      -3.670          0.1815E+06
   9759      1     57     15      -3.670          0.1815E+06
   9760      1     57     16      -3.420          0.1815E+06
   9761      1     57     17      -2.910          0.1815E+06
   9762      1     57     18      -2.260          0.1815E+06
   9763      1     57     19      -1.560          0.1815E+06
   9764      1     57     20       1.430          0.1815E+06
   9765      1     57     21       1.430          0.1815E+06
   9766      1     57     22       3.430          0.1815E+06
   9767      1     57     23       5.930          0.1815E+06
   9768      1     57     24       9.500          0.1815E+06
   9769      1     57     25       9.180          0.1815E+06
   9770      1     57     26       8.460          0.1815E+06
   9771      1     57     27       9.390          0.1815E+06
   9772      1     57     28       9.850          0.1815E+06
   9773      1     57     29       11.44          0.1815E+06
   9774      1     57     30       13.51          0.1815E+06
   9775      1     57     31       11.51          0.1815E+06
   9776      1     57     32       10.82          0.1815E+06
   9777      1     57     33       10.84          0.1815E+06
   9778      1     57     34       12.01          0.1815E+06
   9779      1     57     35       11.18          0.1815E+06
   9780      1     57     36       10.90          0.1815E+06
   9781      1     57     37       11.59          0.1815E+06
   9782      1     57     38       11.00          0.1815E+06
   9783      1     57     39       11.02          0.1815E+06
   9784      1     57     40       10.98          0.1815E+06
   9785      1     57     41       10.61          0.1815E+06
   9786      1     57     42       10.34          0.1815E+06
   9787      1     57     43       10.06          0.1815E+06
   9788      1     57     44       7.110          0.1815E+06
   9789      1     57     45       9.520          0.1815E+06
   9790      1     57     46       12.07          0.1815E+06
   9791      1     57     47       13.06          0.1815E+06
   9792      1     57     48       13.60          0.1815E+06
   9793      1     57     49       12.38          0.1815E+06
   9794      1     57     50       13.27          0.1815E+06
   9795      1     57     51       14.05          0.1815E+06
   9796      1     57     52       14.50          0.1815E+06
   9797      1     57     53       14.56          0.1815E+06
   9798      1     57     54       15.06          0.1815E+06
   9799      1     57     55       14.97          0.1815E+06
   9800      1     57     56       16.51          0.1815E+06
   9801      1     57     57       17.06          0.1815E+06
   9802      1     57     58       17.87          0.1815E+06
   9803      1     57     59       18.51          0.1815E+06
   9804      1     57     60       19.42          0.1815E+06
   9805      1     57     61       19.82          0.1815E+06
   9806      1     57     62       20.92          0.1815E+06
   9807      1     57     63       21.97          0.1815E+06
   9808      1     57     64       23.45          0.1815E+06
   9809      1     57     65       24.87          0.1815E+06
   9810      1     57     66       25.79          0.1815E+06
   9811      1     57     67       27.59          0.1815E+06
   9812      1     57     68       30.00          0.1815E+06
   9813      1     57     69       32.20          0.1815E+06
   9814      1     57     70       33.60          0.1815E+06
   9815      1     57     71       33.80          0.1815E+06
   9816      1     57     72       34.40          0.1815E+06
   9817      1     57     73       35.40          0.1815E+06
   9818      1     57     74       35.40          0.1815E+06
   9819      1     57     75       35.30          0.1815E+06
   9820      1     57     76       35.20          0.1815E+06
   9821      1     57     77       35.30          0.1815E+06
   9822      1     57     78       34.30          0.1815E+06
   9823      1     57     79       33.30          0.1815E+06
   9824      1     57     80       33.50          0.1815E+06
   9825      1     57     81       34.00          0.1815E+06
   9826      1     57     82       33.80          0.1815E+06
   9827      1     57     83       33.90          0.1815E+06
   9828      1     57     84       33.90          0.1815E+06
   9829      1     57     85       32.20          0.1815E+06
   9830      1     57     86       30.10          0.1815E+06
   9831      1     57     87       31.50          0.1815E+06
   9832      1     57     88       32.00          0.1815E+06
   9833      1     57     89       31.60          0.1815E+06
   9834      1     57     90       31.40          0.1815E+06
   9835      1     57     91       31.10          0.1815E+06
   9836      1     57     92       30.70          0.1815E+06
   9837      1     57     93       29.90          0.1815E+06
   9838      1     57     94       28.10          0.1815E+06
   9839      1     57     95       27.20          0.1815E+06
   9840      1     57     96       28.30          0.1815E+06
   9841      1     57     97       28.50          0.1815E+06
   9842      1     57     98       27.30          0.1815E+06
   9843      1     57     99       24.80          0.1815E+06
   9844      1     57    100       23.80          0.1815E+06
   9845      1     57    101       23.60          0.1815E+06
   9846      1     57    102       23.50          0.1815E+06
   9847      1     57    103       23.70          0.1815E+06
   9848      1     57    104       23.60          0.1815E+06
   9849      1     57    105       23.60          0.1815E+06
   9850      1     57    106       24.00          0.1815E+06
   9851      1     57    107       24.00          0.1815E+06
   9852      1     57    108       23.90          0.1815E+06
   9853      1     57    109       24.70          0.1815E+06
   9854      1     57    110       25.70          0.1815E+06
   9855      1     57    111       26.60          0.1815E+06
   9856      1     57    112       27.00          0.1815E+06
   9857      1     57    113       27.00          0.1815E+06
   9858      1     57    114       27.90          0.1815E+06
   9859      1     57    115       28.80          0.1815E+06
   9860      1     57    116       30.70          0.1815E+06
   9861      1     57    117       32.10          0.1815E+06
   9862      1     57    118       30.80          0.1815E+06
   9863      1     57    119       31.30          0.1815E+06
   9864      1     57    120       35.20          0.1815E+06
   9865      1     57    121       36.40          0.1815E+06
   9866      1     57    122       36.50          0.1815E+06
   9867      1     57    123       35.40          0.1815E+06
   9868      1     57    124       34.40          0.1815E+06
   9869      1     57    125       35.00          0.1815E+06
   9870      1     57    126       35.70          0.1815E+06
   9871      1     57    127       35.90          0.1815E+06
   9872      1     57    128       35.70          0.1815E+06
   9873      1     57    129       34.80          0.1815E+06
   9874      1     57    130       34.80          0.1815E+06
   9875      1     57    131       34.10          0.1815E+06
   9876      1     57    132       32.80          0.1815E+06
   9877      1     57    133       31.80          0.1815E+06
   9878      1     57    134       31.20          0.1815E+06
   9879      1     57    135       30.40          0.1815E+06
   9880      1     57    136       28.10          0.1815E+06
   9881      1     57    137       27.20          0.1815E+06
   9882      1     57    138       27.40          0.1815E+06
   9883      1     57    139       27.20          0.1815E+06
   9884      1     57    140       25.40          0.1815E+06
   9885      1     57    141       25.50          0.1815E+06
   9886      1     57    142       26.20          0.1815E+06
   9887      1     57    143       26.10          0.1815E+06
   9888      1     57    144       25.10          0.1815E+06
   9889      1     57    145       24.70          0.1815E+06
   9890      1     57    146       24.10          0.1815E+06
   9891      1     57    147       24.10          0.1815E+06
   9892      1     57    148       28.20          0.1815E+06
   9893      1     57    149       32.80          0.1815E+06
   9894      1     57    150       35.80          0.1815E+06
   9895      1     57    151       36.80          0.1815E+06
   9896      1     57    152       37.30          0.1815E+06
   9897      1     57    153       38.10          0.1815E+06
   9898      1     57    154       39.20          0.1815E+06
   9899      1     57    155       40.60          0.1815E+06
   9900      1     57    156       40.70          0.1815E+06
   9901      1     57    157       40.50          0.1815E+06
   9902      1     57    158       40.50          0.1815E+06
   9903      1     57    159       40.50          0.1815E+06
   9904      1     57    160       40.50          0.1815E+06
   9905      1     57    161       40.60          0.1815E+06
   9906      1     57    162       40.80          0.1815E+06
   9907      1     57    163       40.50          0.1815E+06
   9908      1     57    164       40.40          0.1815E+06
   9909      1     57    165       39.70          0.1815E+06
   9910      1     57    166       38.80          0.1815E+06
   9911      1     57    167       38.00          0.1815E+06
   9912      1     57    168       38.00          0.1815E+06
   9913      1     57    169       39.00          0.1815E+06
   9914      1     57    170       40.30          0.1815E+06
   9915      1     57    171       41.40          0.1815E+06
   9916      1     57    172       42.40          0.1815E+06
   9917      1     57    173       44.00          0.1815E+06
   9918      1     57    174       45.40          0.1815E+06
   9919      1     58      1      -5.580          0.1815E+06
   9920      1     58      2      -6.420          0.1815E+06
   9921      1     58      3      -6.420          0.1815E+06
   9922      1     58      4      -7.380          0.1815E+06
   9923      1     58      5      -7.180          0.1815E+06
   9924      1     58      6      -5.480          0.1815E+06
   9925      1     58      7      -6.280          0.1815E+06
   9926      1     58      8      -6.480          0.1815E+06
   9927      1     58      9      -6.480          0.1815E+06
   9928      1     58     10      -6.230          0.1815E+06
   9929      1     58     11      -4.480          0.1815E+06
   9930      1     58     12      -4.280          0.1815E+06
   9931      1     58     13      -4.130          0.1815E+06
   9932      1     58     14      -3.900          0.1815E+06
   9933      1     58     15      -3.900          0.1815E+06
   9934      1     58     16      -3.680          0.1815E+06
   9935      1     58     17      -2.910          0.1815E+06
   9936      1     58     18      -2.260          0.1815E+06
   9937      1     58     19      -1.560          0.1815E+06
   9938      1     58     20      0.4200          0.1815E+06
   9939      1     58     21      0.4200          0.1815E+06
   9940      1     58     22       1.440          0.1815E+06
   9941      1     58     23       3.440          0.1815E+06
   9942      1     58     24       6.440          0.1815E+06
   9943      1     58     25       8.350          0.1815E+06
   9944      1     58     26       9.520          0.1815E+06
   9945      1     58     27       8.190          0.1815E+06
   9946      1     58     28       9.060          0.1815E+06
   9947      1     58     29       13.10          0.1815E+06
   9948      1     58     30       13.56          0.1815E+06
   9949      1     58     31       12.15          0.1815E+06
   9950      1     58     32       10.76          0.1815E+06
   9951      1     58     33       10.89          0.1815E+06
   9952      1     58     34       11.19          0.1815E+06
   9953      1     58     35       12.19          0.1815E+06
   9954      1     58     36       11.32          0.1815E+06
   9955      1     58     37       10.98          0.1815E+06
   9956      1     58     38       10.72          0.1815E+06
   9957      1     58     39       10.97          0.1815E+06
   9958      1     58     40       10.77          0.1815E+06
   9959      1     58     41       10.35          0.1815E+06
   9960      1     58     42       10.52          0.1815E+06
   9961      1     58     43       9.630          0.1815E+06
   9962      1     58     44       8.460          0.1815E+06
   9963      1     58     45       8.260          0.1815E+06
   9964      1     58     46       11.27          0.1815E+06
   9965      1     58     47       13.39          0.1815E+06
   9966      1     58     48       13.39          0.1815E+06
   9967      1     58     49       13.46          0.1815E+06
   9968      1     58     50       14.14          0.1815E+06
   9969      1     58     51       14.50          0.1815E+06
   9970      1     58     52       14.22          0.1815E+06
   9971      1     58     53       14.55          0.1815E+06
   9972      1     58     54       15.14          0.1815E+06
   9973      1     58     55       15.78          0.1815E+06
   9974      1     58     56       15.68          0.1815E+06
   9975      1     58     57       17.09          0.1815E+06
   9976      1     58     58       17.71          0.1815E+06
   9977      1     58     59       18.26          0.1815E+06
   9978      1     58     60       18.92          0.1815E+06
   9979      1     58     61       20.30          0.1815E+06
   9980      1     58     62       21.95          0.1815E+06
   9981      1     58     63       22.76          0.1815E+06
   9982      1     58     64       25.20          0.1815E+06
   9983      1     58     65       28.06          0.1815E+06
   9984      1     58     66       30.38          0.1815E+06
   9985      1     58     67       32.22          0.1815E+06
   9986      1     58     68       33.09          0.1815E+06
   9987      1     58     69       34.60          0.1815E+06
   9988      1     58     70       35.60          0.1815E+06
   9989      1     58     71       36.20          0.1815E+06
   9990      1     58     72       36.70          0.1815E+06
   9991      1     58     73       37.00          0.1815E+06
   9992      1     58     74       37.10          0.1815E+06
   9993      1     58     75       37.10          0.1815E+06
   9994      1     58     76       37.10          0.1815E+06
   9995      1     58     77       36.80          0.1815E+06
   9996      1     58     78       36.10          0.1815E+06
   9997      1     58     79       35.00          0.1815E+06
   9998      1     58     80       34.80          0.1815E+06
   9999      1     58     81       34.90          0.1815E+06
  10000      1     58     82       34.80          0.1815E+06
  10001      1     58     83       34.80          0.1815E+06
  10002      1     58     84       35.10          0.1815E+06
  10003      1     58     85       34.60          0.1815E+06
  10004      1     58     86       33.00          0.1815E+06
  10005      1     58     87       32.80          0.1815E+06
  10006      1     58     88       33.10          0.1815E+06
  10007      1     58     89       32.80          0.1815E+06
  10008      1     58     90       32.30          0.1815E+06
  10009      1     58     91       32.10          0.1815E+06
  10010      1     58     92       31.80          0.1815E+06
  10011      1     58     93       31.40          0.1815E+06
  10012      1     58     94       30.40          0.1815E+06
  10013      1     58     95       29.40          0.1815E+06
  10014      1     58     96       29.80          0.1815E+06
  10015      1     58     97       29.80          0.1815E+06
  10016      1     58     98       28.70          0.1815E+06
  10017      1     58     99       27.10          0.1815E+06
  10018      1     58    100       25.80          0.1815E+06
  10019      1     58    101       24.60          0.1815E+06
  10020      1     58    102       24.00          0.1815E+06
  10021      1     58    103       24.10          0.1815E+06
  10022      1     58    104       24.20          0.1815E+06
  10023      1     58    105       24.00          0.1815E+06
  10024      1     58    106       24.20          0.1815E+06
  10025      1     58    107       24.20          0.1815E+06
  10026      1     58    108       24.10          0.1815E+06
  10027      1     58    109       23.90          0.1815E+06
  10028      1     58    110       24.50          0.1815E+06
  10029      1     58    111       25.30          0.1815E+06
  10030      1     58    112       26.40          0.1815E+06
  10031      1     58    113       26.90          0.1815E+06
  10032      1     58    114       27.10          0.1815E+06
  10033      1     58    115       27.50          0.1815E+06
  10034      1     58    116       28.50          0.1815E+06
  10035      1     58    117       29.60          0.1815E+06
  10036      1     58    118       29.10          0.1815E+06
  10037      1     58    119       29.20          0.1815E+06
  10038      1     58    120       32.10          0.1815E+06
  10039      1     58    121       34.10          0.1815E+06
  10040      1     58    122       34.10          0.1815E+06
  10041      1     58    123       33.10          0.1815E+06
  10042      1     58    124       32.50          0.1815E+06
  10043      1     58    125       33.10          0.1815E+06
  10044      1     58    126       33.90          0.1815E+06
  10045      1     58    127       34.30          0.1815E+06
  10046      1     58    128       33.60          0.1815E+06
  10047      1     58    129       31.70          0.1815E+06
  10048      1     58    130       31.20          0.1815E+06
  10049      1     58    131       30.70          0.1815E+06
  10050      1     58    132       29.50          0.1815E+06
  10051      1     58    133       29.00          0.1815E+06
  10052      1     58    134       28.30          0.1815E+06
  10053      1     58    135       27.50          0.1815E+06
  10054      1     58    136       26.50          0.1815E+06
  10055      1     58    137       25.80          0.1815E+06
  10056      1     58    138       25.60          0.1815E+06
  10057      1     58    139       25.80          0.1815E+06
  10058      1     58    140       25.10          0.1815E+06
  10059      1     58    141       25.20          0.1815E+06
  10060      1     58    142       25.20          0.1815E+06
  10061      1     58    143       24.30          0.1815E+06
  10062      1     58    144       24.90          0.1815E+06
  10063      1     58    145       24.90          0.1815E+06
  10064      1     58    146       24.10          0.1815E+06
  10065      1     58    147       24.20          0.1815E+06
  10066      1     58    148       27.80          0.1815E+06
  10067      1     58    149       33.10          0.1815E+06
  10068      1     58    150       36.30          0.1815E+06
  10069      1     58    151       37.10          0.1815E+06
  10070      1     58    152       37.30          0.1815E+06
  10071      1     58    153       38.10          0.1815E+06
  10072      1     58    154       39.10          0.1815E+06
  10073      1     58    155       40.20          0.1815E+06
  10074      1     58    156       40.50          0.1815E+06
  10075      1     58    157       40.50          0.1815E+06
  10076      1     58    158       40.50          0.1815E+06
  10077      1     58    159       40.50          0.1815E+06
  10078      1     58    160       40.50          0.1815E+06
  10079      1     58    161       40.50          0.1815E+06
  10080      1     58    162       40.50          0.1815E+06
  10081      1     58    163       40.60          0.1815E+06
  10082      1     58    164       40.70          0.1815E+06
  10083      1     58    165       40.90          0.1815E+06
  10084      1     58    166       40.50          0.1815E+06
  10085      1     58    167       40.40          0.1815E+06
  10086      1     58    168       40.40          0.1815E+06
  10087      1     58    169       40.90          0.1815E+06
  10088      1     58    170       42.30          0.1815E+06
  10089      1     58    171       43.70          0.1815E+06
  10090      1     58    172       44.90          0.1815E+06
  10091      1     58    173       45.80          0.1815E+06
  10092      1     58    174       47.60          0.1815E+06
  10093      1     59      1      -7.490          0.1815E+06
  10094      1     59      2      -6.140          0.1815E+06
  10095      1     59      3      -6.140          0.1815E+06
  10096      1     59      4      -7.690          0.1815E+06
  10097      1     59      5      -5.840          0.1815E+06
  10098      1     59      6      -6.110          0.1815E+06
  10099      1     59      7      -6.450          0.1815E+06
  10100      1     59      8      -6.450          0.1815E+06
  10101      1     59      9      -6.450          0.1815E+06
  10102      1     59     10      -5.240          0.1815E+06
  10103      1     59     11      -4.800          0.1815E+06
  10104      1     59     12      -4.280          0.1815E+06
  10105      1     59     13      -4.130          0.1815E+06
  10106      1     59     14      -3.750          0.1815E+06
  10107      1     59     15      -3.750          0.1815E+06
  10108      1     59     16      -3.680          0.1815E+06
  10109      1     59     17      -3.050          0.1815E+06
  10110      1     59     18      -2.290          0.1815E+06
  10111      1     59     19      -2.380          0.1815E+06
  10112      1     59     20     -0.6600          0.1815E+06
  10113      1     59     21     -0.6600          0.1815E+06
  10114      1     59     22      0.4300          0.1815E+06
  10115      1     59     23       2.430          0.1815E+06
  10116      1     59     24       4.430          0.1815E+06
  10117      1     59     25       9.610          0.1815E+06
  10118      1     59     26       8.680          0.1815E+06
  10119      1     59     27       8.530          0.1815E+06
  10120      1     59     28       9.380          0.1815E+06
  10121      1     59     29       8.930          0.1815E+06
  10122      1     59     30       10.10          0.1815E+06
  10123      1     59     31       13.02          0.1815E+06
  10124      1     59     32       10.44          0.1815E+06
  10125      1     59     33       12.92          0.1815E+06
  10126      1     59     34       14.39          0.1815E+06
  10127      1     59     35       11.39          0.1815E+06
  10128      1     59     36       11.47          0.1815E+06
  10129      1     59     37       11.77          0.1815E+06
  10130      1     59     38       11.00          0.1815E+06
  10131      1     59     39       10.65          0.1815E+06
  10132      1     59     40       10.97          0.1815E+06
  10133      1     59     41       10.25          0.1815E+06
  10134      1     59     42       9.960          0.1815E+06
  10135      1     59     43       9.380          0.1815E+06
  10136      1     59     44       8.820          0.1815E+06
  10137      1     59     45       8.180          0.1815E+06
  10138      1     59     46       10.98          0.1815E+06
  10139      1     59     47       13.14          0.1815E+06
  10140      1     59     48       13.53          0.1815E+06
  10141      1     59     49       13.75          0.1815E+06
  10142      1     59     50       14.78          0.1815E+06
  10143      1     59     51       15.15          0.1815E+06
  10144      1     59     52       14.26          0.1815E+06
  10145      1     59     53       14.42          0.1815E+06
  10146      1     59     54       15.78          0.1815E+06
  10147      1     59     55       15.35          0.1815E+06
  10148      1     59     56       15.77          0.1815E+06
  10149      1     59     57       16.50          0.1815E+06
  10150      1     59     58       17.32          0.1815E+06
  10151      1     59     59       18.13          0.1815E+06
  10152      1     59     60       18.85          0.1815E+06
  10153      1     59     61       20.71          0.1815E+06
  10154      1     59     62       21.32          0.1815E+06
  10155      1     59     63       22.30          0.1815E+06
  10156      1     59     64       25.62          0.1815E+06
  10157      1     59     65       29.63          0.1815E+06
  10158      1     59     66       31.68          0.1815E+06
  10159      1     59     67       35.27          0.1815E+06
  10160      1     59     68       35.50          0.1815E+06
  10161      1     59     69       35.68          0.1815E+06
  10162      1     59     70       36.66          0.1815E+06
  10163      1     59     71       37.10          0.1815E+06
  10164      1     59     72       37.50          0.1815E+06
  10165      1     59     73       37.80          0.1815E+06
  10166      1     59     74       37.80          0.1815E+06
  10167      1     59     75       37.90          0.1815E+06
  10168      1     59     76       38.10          0.1815E+06
  10169      1     59     77       38.20          0.1815E+06
  10170      1     59     78       37.20          0.1815E+06
  10171      1     59     79       36.20          0.1815E+06
  10172      1     59     80       36.20          0.1815E+06
  10173      1     59     81       36.30          0.1815E+06
  10174      1     59     82       36.40          0.1815E+06
  10175      1     59     83       36.60          0.1815E+06
  10176      1     59     84       36.60          0.1815E+06
  10177      1     59     85       36.30          0.1815E+06
  10178      1     59     86       34.90          0.1815E+06
  10179      1     59     87       34.80          0.1815E+06
  10180      1     59     88       34.50          0.1815E+06
  10181      1     59     89       33.70          0.1815E+06
  10182      1     59     90       33.20          0.1815E+06
  10183      1     59     91       32.80          0.1815E+06
  10184      1     59     92       32.50          0.1815E+06
  10185      1     59     93       32.10          0.1815E+06
  10186      1     59     94       31.70          0.1815E+06
  10187      1     59     95       31.30          0.1815E+06
  10188      1     59     96       31.10          0.1815E+06
  10189      1     59     97       30.90          0.1815E+06
  10190      1     59     98       30.30          0.1815E+06
  10191      1     59     99       28.60          0.1815E+06
  10192      1     59    100       27.40          0.1815E+06
  10193      1     59    101       26.30          0.1815E+06
  10194      1     59    102       25.20          0.1815E+06
  10195      1     59    103       24.30          0.1815E+06
  10196      1     59    104       24.20          0.1815E+06
  10197      1     59    105       24.40          0.1815E+06
  10198      1     59    106       25.00          0.1815E+06
  10199      1     59    107       25.00          0.1815E+06
  10200      1     59    108       25.20          0.1815E+06
  10201      1     59    109       25.30          0.1815E+06
  10202      1     59    110       26.40          0.1815E+06
  10203      1     59    111       27.50          0.1815E+06
  10204      1     59    112       28.20          0.1815E+06
  10205      1     59    113       28.80          0.1815E+06
  10206      1     59    114       28.60          0.1815E+06
  10207      1     59    115       28.60          0.1815E+06
  10208      1     59    116       28.80          0.1815E+06
  10209      1     59    117       29.10          0.1815E+06
  10210      1     59    118       29.00          0.1815E+06
  10211      1     59    119       29.10          0.1815E+06
  10212      1     59    120       29.80          0.1815E+06
  10213      1     59    121       30.80          0.1815E+06
  10214      1     59    122       31.10          0.1815E+06
  10215      1     59    123       29.80          0.1815E+06
  10216      1     59    124       30.40          0.1815E+06
  10217      1     59    125       30.50          0.1815E+06
  10218      1     59    126       31.30          0.1815E+06
  10219      1     59    127       31.10          0.1815E+06
  10220      1     59    128       30.80          0.1815E+06
  10221      1     59    129       29.40          0.1815E+06
  10222      1     59    130       28.80          0.1815E+06
  10223      1     59    131       28.20          0.1815E+06
  10224      1     59    132       26.70          0.1815E+06
  10225      1     59    133       26.10          0.1815E+06
  10226      1     59    134       26.60          0.1815E+06
  10227      1     59    135       24.90          0.1815E+06
  10228      1     59    136       25.00          0.1815E+06
  10229      1     59    137       24.60          0.1815E+06
  10230      1     59    138       24.20          0.1815E+06
  10231      1     59    139       24.50          0.1815E+06
  10232      1     59    140       24.50          0.1815E+06
  10233      1     59    141       24.40          0.1815E+06
  10234      1     59    142       23.90          0.1815E+06
  10235      1     59    143       23.60          0.1815E+06
  10236      1     59    144       25.60          0.1815E+06
  10237      1     59    145       25.80          0.1815E+06
  10238      1     59    146       24.60          0.1815E+06
  10239      1     59    147       24.00          0.1815E+06
  10240      1     59    148       27.60          0.1815E+06
  10241      1     59    149       32.90          0.1815E+06
  10242      1     59    150       35.80          0.1815E+06
  10243      1     59    151       36.80          0.1815E+06
  10244      1     59    152       37.30          0.1815E+06
  10245      1     59    153       38.20          0.1815E+06
  10246      1     59    154       39.60          0.1815E+06
  10247      1     59    155       40.50          0.1815E+06
  10248      1     59    156       40.80          0.1815E+06
  10249      1     59    157       40.70          0.1815E+06
  10250      1     59    158       40.50          0.1815E+06
  10251      1     59    159       40.50          0.1815E+06
  10252      1     59    160       40.50          0.1815E+06
  10253      1     59    161       40.50          0.1815E+06
  10254      1     59    162       40.50          0.1815E+06
  10255      1     59    163       40.60          0.1815E+06
  10256      1     59    164       40.80          0.1815E+06
  10257      1     59    165       40.80          0.1815E+06
  10258      1     59    166       40.30          0.1815E+06
  10259      1     59    167       40.10          0.1815E+06
  10260      1     59    168       40.70          0.1815E+06
  10261      1     59    169       42.30          0.1815E+06
  10262      1     59    170       44.00          0.1815E+06
  10263      1     59    171       45.70          0.1815E+06
  10264      1     59    172       47.60          0.1815E+06
  10265      1     59    173       49.70          0.1815E+06
  10266      1     59    174       51.90          0.1815E+06
  10267      1     60      1      -7.490          0.1815E+06
  10268      1     60      2      -6.140          0.1815E+06
  10269      1     60      3      -6.140          0.1815E+06
  10270      1     60      4      -7.690          0.1815E+06
  10271      1     60      5      -5.840          0.1815E+06
  10272      1     60      6      -6.110          0.1815E+06
  10273      1     60      7      -6.450          0.1815E+06
  10274      1     60      8      -6.450          0.1815E+06
  10275      1     60      9      -6.450          0.1815E+06
  10276      1     60     10      -5.240          0.1815E+06
  10277      1     60     11      -4.800          0.1815E+06
  10278      1     60     12      -4.280          0.1815E+06
  10279      1     60     13      -4.130          0.1815E+06
  10280      1     60     14      -3.750          0.1815E+06
  10281      1     60     15      -3.750          0.1815E+06
  10282      1     60     16      -3.680          0.1815E+06
  10283      1     60     17      -3.050          0.1815E+06
  10284      1     60     18      -2.290          0.1815E+06
  10285      1     60     19      -2.380          0.1815E+06
  10286      1     60     20     -0.6600          0.1815E+06
  10287      1     60     21     -0.6600          0.1815E+06
  10288      1     60     22      0.4300          0.1815E+06
  10289      1     60     23       2.430          0.1815E+06
  10290      1     60     24       4.430          0.1815E+06
  10291      1     60     25       7.320          0.1815E+06
  10292      1     60     26       10.47          0.1815E+06
  10293      1     60     27       7.750          0.1815E+06
  10294      1     60     28       7.800          0.1815E+06
  10295      1     60     29       9.420          0.1815E+06
  10296      1     60     30       11.53          0.1815E+06
  10297      1     60     31       11.85          0.1815E+06
  10298      1     60     32       9.840          0.1815E+06
  10299      1     60     33       10.03          0.1815E+06
  10300      1     60     34       11.14          0.1815E+06
  10301      1     60     35       12.55          0.1815E+06
  10302      1     60     36       11.47          0.1815E+06
  10303      1     60     37       11.10          0.1815E+06
  10304      1     60     38       11.28          0.1815E+06
  10305      1     60     39       10.82          0.1815E+06
  10306      1     60     40       10.78          0.1815E+06
  10307      1     60     41       10.68          0.1815E+06
  10308      1     60     42       10.13          0.1815E+06
  10309      1     60     43       9.610          0.1815E+06
  10310      1     60     44       9.340          0.1815E+06
  10311      1     60     45       8.060          0.1815E+06
  10312      1     60     46       9.350          0.1815E+06
  10313      1     60     47       13.31          0.1815E+06
  10314      1     60     48       13.92          0.1815E+06
  10315      1     60     49       14.09          0.1815E+06
  10316      1     60     50       14.80          0.1815E+06
  10317      1     60     51       15.39          0.1815E+06
  10318      1     60     52       15.67          0.1815E+06
  10319      1     60     53       14.71          0.1815E+06
  10320      1     60     54       15.05          0.1815E+06
  10321      1     60     55       16.20          0.1815E+06
  10322      1     60     56       15.64          0.1815E+06
  10323      1     60     57       16.11          0.1815E+06
  10324      1     60     58       17.29          0.1815E+06
  10325      1     60     59       17.44          0.1815E+06
  10326      1     60     60       18.38          0.1815E+06
  10327      1     60     61       19.63          0.1815E+06
  10328      1     60     62       20.54          0.1815E+06
  10329      1     60     63       21.80          0.1815E+06
  10330      1     60     64       24.50          0.1815E+06
  10331      1     60     65       27.32          0.1815E+06
  10332      1     60     66       31.13          0.1815E+06
  10333      1     60     67       34.18          0.1815E+06
  10334      1     60     68       35.91          0.1815E+06
  10335      1     60     69       36.63          0.1815E+06
  10336      1     60     70       37.02          0.1815E+06
  10337      1     60     71       37.78          0.1815E+06
  10338      1     60     72       37.90          0.1815E+06
  10339      1     60     73       38.20          0.1815E+06
  10340      1     60     74       38.40          0.1815E+06
  10341      1     60     75       38.30          0.1815E+06
  10342      1     60     76       38.30          0.1815E+06
  10343      1     60     77       38.50          0.1815E+06
  10344      1     60     78       38.50          0.1815E+06
  10345      1     60     79       37.40          0.1815E+06
  10346      1     60     80       37.40          0.1815E+06
  10347      1     60     81       37.60          0.1815E+06
  10348      1     60     82       37.60          0.1815E+06
  10349      1     60     83       38.00          0.1815E+06
  10350      1     60     84       38.30          0.1815E+06
  10351      1     60     85       37.40          0.1815E+06
  10352      1     60     86       36.50          0.1815E+06
  10353      1     60     87       36.20          0.1815E+06
  10354      1     60     88       35.80          0.1815E+06
  10355      1     60     89       35.30          0.1815E+06
  10356      1     60     90       34.60          0.1815E+06
  10357      1     60     91       33.80          0.1815E+06
  10358      1     60     92       33.00          0.1815E+06
  10359      1     60     93       32.50          0.1815E+06
  10360      1     60     94       32.40          0.1815E+06
  10361      1     60     95       32.10          0.1815E+06
  10362      1     60     96       31.70          0.1815E+06
  10363      1     60     97       31.40          0.1815E+06
  10364      1     60     98       30.90          0.1815E+06
  10365      1     60     99       29.40          0.1815E+06
  10366      1     60    100       28.10          0.1815E+06
  10367      1     60    101       26.80          0.1815E+06
  10368      1     60    102       26.10          0.1815E+06
  10369      1     60    103       24.60          0.1815E+06
  10370      1     60    104       24.70          0.1815E+06
  10371      1     60    105       24.90          0.1815E+06
  10372      1     60    106       26.00          0.1815E+06
  10373      1     60    107       26.40          0.1815E+06
  10374      1     60    108       26.60          0.1815E+06
  10375      1     60    109       27.20          0.1815E+06
  10376      1     60    110       28.70          0.1815E+06
  10377      1     60    111       30.60          0.1815E+06
  10378      1     60    112       31.50          0.1815E+06
  10379      1     60    113       31.70          0.1815E+06
  10380      1     60    114       31.60          0.1815E+06
  10381      1     60    115       30.40          0.1815E+06
  10382      1     60    116       30.20          0.1815E+06
  10383      1     60    117       30.50          0.1815E+06
  10384      1     60    118       30.20          0.1815E+06
  10385      1     60    119       29.50          0.1815E+06
  10386      1     60    120       29.20          0.1815E+06
  10387      1     60    121       29.10          0.1815E+06
  10388      1     60    122       29.30          0.1815E+06
  10389      1     60    123       28.90          0.1815E+06
  10390      1     60    124       28.50          0.1815E+06
  10391      1     60    125       28.40          0.1815E+06
  10392      1     60    126       28.80          0.1815E+06
  10393      1     60    127       28.60          0.1815E+06
  10394      1     60    128       28.50          0.1815E+06
  10395      1     60    129       28.10          0.1815E+06
  10396      1     60    130       27.50          0.1815E+06
  10397      1     60    131       27.20          0.1815E+06
  10398      1     60    132       26.00          0.1815E+06
  10399      1     60    133       24.60          0.1815E+06
  10400      1     60    134       25.90          0.1815E+06
  10401      1     60    135       24.60          0.1815E+06
  10402      1     60    136       24.20          0.1815E+06
  10403      1     60    137       24.40          0.1815E+06
  10404      1     60    138       24.20          0.1815E+06
  10405      1     60    139       24.00          0.1815E+06
  10406      1     60    140       23.80          0.1815E+06
  10407      1     60    141       23.60          0.1815E+06
  10408      1     60    142       23.50          0.1815E+06
  10409      1     60    143       24.10          0.1815E+06
  10410      1     60    144       25.60          0.1815E+06
  10411      1     60    145       26.40          0.1815E+06
  10412      1     60    146       25.40          0.1815E+06
  10413      1     60    147       24.30          0.1815E+06
  10414      1     60    148       26.20          0.1815E+06
  10415      1     60    149       31.10          0.1815E+06
  10416      1     60    150       33.80          0.1815E+06
  10417      1     60    151       34.90          0.1815E+06
  10418      1     60    152       36.50          0.1815E+06
  10419      1     60    153       38.50          0.1815E+06
  10420      1     60    154       40.30          0.1815E+06
  10421      1     60    155       40.50          0.1815E+06
  10422      1     60    156       40.40          0.1815E+06
  10423      1     60    157       40.70          0.1815E+06
  10424      1     60    158       40.70          0.1815E+06
  10425      1     60    159       40.50          0.1815E+06
  10426      1     60    160       40.50          0.1815E+06
  10427      1     60    161       40.60          0.1815E+06
  10428      1     60    162       40.80          0.1815E+06
  10429      1     60    163       40.70          0.1815E+06
  10430      1     60    164       40.10          0.1815E+06
  10431      1     60    165       40.30          0.1815E+06
  10432      1     60    166       40.80          0.1815E+06
  10433      1     60    167       41.50          0.1815E+06
  10434      1     60    168       42.80          0.1815E+06
  10435      1     60    169       44.10          0.1815E+06
  10436      1     60    170       45.60          0.1815E+06
  10437      1     60    171       47.70          0.1815E+06
  10438      1     60    172       50.10          0.1815E+06
  10439      1     60    173       52.80          0.1815E+06
  10440      1     60    174       55.20          0.1815E+06
  10441      1     61      1      -8.440          0.1815E+06
  10442      1     61      2      -6.980          0.1815E+06
  10443      1     61      3      -6.980          0.1815E+06
  10444      1     61      4      -6.610          0.1815E+06
  10445      1     61      5      -5.890          0.1815E+06
  10446      1     61      6      -7.090          0.1815E+06
  10447      1     61      7      -6.450          0.1815E+06
  10448      1     61      8      -6.450          0.1815E+06
  10449      1     61      9      -6.450          0.1815E+06
  10450      1     61     10      -5.240          0.1815E+06
  10451      1     61     11      -4.800          0.1815E+06
  10452      1     61     12      -4.390          0.1815E+06
  10453      1     61     13      -4.290          0.1815E+06
  10454      1     61     14      -4.190          0.1815E+06
  10455      1     61     15      -4.190          0.1815E+06
  10456      1     61     16      -4.290          0.1815E+06
  10457      1     61     17      -3.790          0.1815E+06
  10458      1     61     18      -3.690          0.1815E+06
  10459      1     61     19      -2.890          0.1815E+06
  10460      1     61     20      -1.190          0.1815E+06
  10461      1     61     21      -1.190          0.1815E+06
  10462      1     61     22      0.4200          0.1815E+06
  10463      1     61     23       1.430          0.1815E+06
  10464      1     61     24       5.440          0.1815E+06
  10465      1     61     25       5.320          0.1815E+06
  10466      1     61     26       7.780          0.1815E+06
  10467      1     61     27       10.65          0.1815E+06
  10468      1     61     28       7.480          0.1815E+06
  10469      1     61     29       7.940          0.1815E+06
  10470      1     61     30       9.020          0.1815E+06
  10471      1     61     31       10.67          0.1815E+06
  10472      1     61     32       10.52          0.1815E+06
  10473      1     61     33       10.30          0.1815E+06
  10474      1     61     34       11.65          0.1815E+06
  10475      1     61     35       10.47          0.1815E+06
  10476      1     61     36       11.80          0.1815E+06
  10477      1     61     37       11.44          0.1815E+06
  10478      1     61     38       13.77          0.1815E+06
  10479      1     61     39       12.63          0.1815E+06
  10480      1     61     40       10.59          0.1815E+06
  10481      1     61     41       10.31          0.1815E+06
  10482      1     61     42       10.47          0.1815E+06
  10483      1     61     43       10.27          0.1815E+06
  10484      1     61     44       9.310          0.1815E+06
  10485      1     61     45       8.350          0.1815E+06
  10486      1     61     46       8.510          0.1815E+06
  10487      1     61     47       11.76          0.1815E+06
  10488      1     61     48       13.93          0.1815E+06
  10489      1     61     49       14.59          0.1815E+06
  10490      1     61     50       14.28          0.1815E+06
  10491      1     61     51       14.77          0.1815E+06
  10492      1     61     52       16.15          0.1815E+06
  10493      1     61     53       15.18          0.1815E+06
  10494      1     61     54       14.35          0.1815E+06
  10495      1     61     55       14.71          0.1815E+06
  10496      1     61     56       15.52          0.1815E+06
  10497      1     61     57       16.45          0.1815E+06
  10498      1     61     58       16.89          0.1815E+06
  10499      1     61     59       17.62          0.1815E+06
  10500      1     61     60       18.01          0.1815E+06
  10501      1     61     61       19.46          0.1815E+06
  10502      1     61     62       20.53          0.1815E+06
  10503      1     61     63       21.34          0.1815E+06
  10504      1     61     64       24.30          0.1815E+06
  10505      1     61     65       27.68          0.1815E+06
  10506      1     61     66       31.98          0.1815E+06
  10507      1     61     67       35.95          0.1815E+06
  10508      1     61     68       37.00          0.1815E+06
  10509      1     61     69       37.54          0.1815E+06
  10510      1     61     70       37.84          0.1815E+06
  10511      1     61     71       37.77          0.1815E+06
  10512      1     61     72       37.98          0.1815E+06
  10513      1     61     73       38.10          0.1815E+06
  10514      1     61     74       38.40          0.1815E+06
  10515      1     61     75       38.50          0.1815E+06
  10516      1     61     76       38.40          0.1815E+06
  10517      1     61     77       38.30          0.1815E+06
  10518      1     61     78       38.30          0.1815E+06
  10519      1     61     79       38.10          0.1815E+06
  10520      1     61     80       38.00          0.1815E+06
  10521      1     61     81       38.00          0.1815E+06
  10522      1     61     82       38.00          0.1815E+06
  10523      1     61     83       38.20          0.1815E+06
  10524      1     61     84       38.50          0.1815E+06
  10525      1     61     85       38.60          0.1815E+06
  10526      1     61     86       37.60          0.1815E+06
  10527      1     61     87       37.10          0.1815E+06
  10528      1     61     88       37.20          0.1815E+06
  10529      1     61     89       36.70          0.1815E+06
  10530      1     61     90       36.00          0.1815E+06
  10531      1     61     91       34.80          0.1815E+06
  10532      1     61     92       33.40          0.1815E+06
  10533      1     61     93       32.00          0.1815E+06
  10534      1     61     94       32.10          0.1815E+06
  10535      1     61     95       31.60          0.1815E+06
  10536      1     61     96       31.30          0.1815E+06
  10537      1     61     97       30.90          0.1815E+06
  10538      1     61     98       30.60          0.1815E+06
  10539      1     61     99       29.90          0.1815E+06
  10540      1     61    100       28.40          0.1815E+06
  10541      1     61    101       27.00          0.1815E+06
  10542      1     61    102       26.10          0.1815E+06
  10543      1     61    103       25.70          0.1815E+06
  10544      1     61    104       25.90          0.1815E+06
  10545      1     61    105       26.40          0.1815E+06
  10546      1     61    106       27.00          0.1815E+06
  10547      1     61    107       27.50          0.1815E+06
  10548      1     61    108       28.20          0.1815E+06
  10549      1     61    109       29.30          0.1815E+06
  10550      1     61    110       30.80          0.1815E+06
  10551      1     61    111       32.80          0.1815E+06
  10552      1     61    112       34.90          0.1815E+06
  10553      1     61    113       34.50          0.1815E+06
  10554      1     61    114       33.60          0.1815E+06
  10555      1     61    115       32.70          0.1815E+06
  10556      1     61    116       32.70          0.1815E+06
  10557      1     61    117       32.90          0.1815E+06
  10558      1     61    118       32.20          0.1815E+06
  10559      1     61    119       31.30          0.1815E+06
  10560      1     61    120       30.40          0.1815E+06
  10561      1     61    121       29.90          0.1815E+06
  10562      1     61    122       29.70          0.1815E+06
  10563      1     61    123       29.20          0.1815E+06
  10564      1     61    124       28.80          0.1815E+06
  10565      1     61    125       28.30          0.1815E+06
  10566      1     61    126       27.90          0.1815E+06
  10567      1     61    127       27.60          0.1815E+06
  10568      1     61    128       27.50          0.1815E+06
  10569      1     61    129       27.20          0.1815E+06
  10570      1     61    130       26.60          0.1815E+06
  10571      1     61    131       26.70          0.1815E+06
  10572      1     61    132       26.70          0.1815E+06
  10573      1     61    133       24.80          0.1815E+06
  10574      1     61    134       25.00          0.1815E+06
  10575      1     61    135       24.60          0.1815E+06
  10576      1     61    136       24.20          0.1815E+06
  10577      1     61    137       24.30          0.1815E+06
  10578      1     61    138       24.40          0.1815E+06
  10579      1     61    139       24.20          0.1815E+06
  10580      1     61    140       24.00          0.1815E+06
  10581      1     61    141       24.00          0.1815E+06
  10582      1     61    142       24.10          0.1815E+06
  10583      1     61    143       24.90          0.1815E+06
  10584      1     61    144       26.00          0.1815E+06
  10585      1     61    145       26.80          0.1815E+06
  10586      1     61    146       26.10          0.1815E+06
  10587      1     61    147       24.40          0.1815E+06
  10588      1     61    148       24.30          0.1815E+06
  10589      1     61    149       27.60          0.1815E+06
  10590      1     61    150       31.60          0.1815E+06
  10591      1     61    151       33.00          0.1815E+06
  10592      1     61    152       34.70          0.1815E+06
  10593      1     61    153       37.20          0.1815E+06
  10594      1     61    154       38.30          0.1815E+06
  10595      1     61    155       38.60          0.1815E+06
  10596      1     61    156       38.40          0.1815E+06
  10597      1     61    157       39.50          0.1815E+06
  10598      1     61    158       41.10          0.1815E+06
  10599      1     61    159       40.70          0.1815E+06
  10600      1     61    160       40.70          0.1815E+06
  10601      1     61    161       40.80          0.1815E+06
  10602      1     61    162       40.40          0.1815E+06
  10603      1     61    163       40.20          0.1815E+06
  10604      1     61    164       41.00          0.1815E+06
  10605      1     61    165       42.00          0.1815E+06
  10606      1     61    166       42.60          0.1815E+06
  10607      1     61    167       43.00          0.1815E+06
  10608      1     61    168       43.80          0.1815E+06
  10609      1     61    169       45.60          0.1815E+06
  10610      1     61    170       47.20          0.1815E+06
  10611      1     61    171       49.20          0.1815E+06
  10612      1     61    172       52.10          0.1815E+06
  10613      1     61    173       55.50          0.1815E+06
  10614      1     61    174       59.40          0.1815E+06
  10615      1     62      1      -9.500          0.1815E+06
  10616      1     62      2      -6.980          0.1815E+06
  10617      1     62      3      -6.980          0.1815E+06
  10618      1     62      4      -6.610          0.1815E+06
  10619      1     62      5      -5.890          0.1815E+06
  10620      1     62      6      -7.090          0.1815E+06
  10621      1     62      7      -6.890          0.1815E+06
  10622      1     62      8      -6.490          0.1815E+06
  10623      1     62      9      -6.490          0.1815E+06
  10624      1     62     10      -5.590          0.1815E+06
  10625      1     62     11      -5.440          0.1815E+06
  10626      1     62     12      -5.190          0.1815E+06
  10627      1     62     13      -4.990          0.1815E+06
  10628      1     62     14      -4.590          0.1815E+06
  10629      1     62     15      -4.590          0.1815E+06
  10630      1     62     16      -4.190          0.1815E+06
  10631      1     62     17      -4.090          0.1815E+06
  10632      1     62     18      -2.900          0.1815E+06
  10633      1     62     19      -2.960          0.1815E+06
  10634      1     62     20      -1.740          0.1815E+06
  10635      1     62     21      -1.740          0.1815E+06
  10636      1     62     22     -0.5800          0.1815E+06
  10637      1     62     23      0.4300          0.1815E+06
  10638      1     62     24       4.430          0.1815E+06
  10639      1     62     25       6.430          0.1815E+06
  10640      1     62     26       6.430          0.1815E+06
  10641      1     62     27       7.340          0.1815E+06
  10642      1     62     28       11.15          0.1815E+06
  10643      1     62     29       10.39          0.1815E+06
  10644      1     62     30       10.14          0.1815E+06
  10645      1     62     31       9.010          0.1815E+06
  10646      1     62     32       10.48          0.1815E+06
  10647      1     62     33       11.31          0.1815E+06
  10648      1     62     34       10.68          0.1815E+06
  10649      1     62     35       11.26          0.1815E+06
  10650      1     62     36       10.59          0.1815E+06
  10651      1     62     37       12.77          0.1815E+06
  10652      1     62     38       11.43          0.1815E+06
  10653      1     62     39       11.47          0.1815E+06
  10654      1     62     40       10.52          0.1815E+06
  10655      1     62     41       10.61          0.1815E+06
  10656      1     62     42       10.34          0.1815E+06
  10657      1     62     43       9.880          0.1815E+06
  10658      1     62     44       9.400          0.1815E+06
  10659      1     62     45       8.110          0.1815E+06
  10660      1     62     46       8.180          0.1815E+06
  10661      1     62     47       8.600          0.1815E+06
  10662      1     62     48       11.89          0.1815E+06
  10663      1     62     49       13.76          0.1815E+06
  10664      1     62     50       13.64          0.1815E+06
  10665      1     62     51       13.81          0.1815E+06
  10666      1     62     52       14.01          0.1815E+06
  10667      1     62     53       14.11          0.1815E+06
  10668      1     62     54       13.61          0.1815E+06
  10669      1     62     55       13.97          0.1815E+06
  10670      1     62     56       14.86          0.1815E+06
  10671      1     62     57       15.60          0.1815E+06
  10672      1     62     58       16.98          0.1815E+06
  10673      1     62     59       17.56          0.1815E+06
  10674      1     62     60       17.98          0.1815E+06
  10675      1     62     61       18.81          0.1815E+06
  10676      1     62     62       20.14          0.1815E+06
  10677      1     62     63       21.68          0.1815E+06
  10678      1     62     64       24.36          0.1815E+06
  10679      1     62     65       27.71          0.1815E+06
  10680      1     62     66       33.15          0.1815E+06
  10681      1     62     67       36.70          0.1815E+06
  10682      1     62     68       37.70          0.1815E+06
  10683      1     62     69       37.97          0.1815E+06
  10684      1     62     70       38.20          0.1815E+06
  10685      1     62     71       37.31          0.1815E+06
  10686      1     62     72       37.20          0.1815E+06
  10687      1     62     73       37.60          0.1815E+06
  10688      1     62     74       37.30          0.1815E+06
  10689      1     62     75       37.90          0.1815E+06
  10690      1     62     76       38.40          0.1815E+06
  10691      1     62     77       38.40          0.1815E+06
  10692      1     62     78       38.30          0.1815E+06
  10693      1     62     79       38.30          0.1815E+06
  10694      1     62     80       38.20          0.1815E+06
  10695      1     62     81       38.10          0.1815E+06
  10696      1     62     82       38.10          0.1815E+06
  10697      1     62     83       38.00          0.1815E+06
  10698      1     62     84       38.20          0.1815E+06
  10699      1     62     85       38.30          0.1815E+06
  10700      1     62     86       38.30          0.1815E+06
  10701      1     62     87       38.00          0.1815E+06
  10702      1     62     88       38.00          0.1815E+06
  10703      1     62     89       38.10          0.1815E+06
  10704      1     62     90       37.20          0.1815E+06
  10705      1     62     91       36.10          0.1815E+06
  10706      1     62     92       34.20          0.1815E+06
  10707      1     62     93       31.90          0.1815E+06
  10708      1     62     94       29.50          0.1815E+06
  10709      1     62     95       29.80          0.1815E+06
  10710      1     62     96       29.80          0.1815E+06
  10711      1     62     97       29.70          0.1815E+06
  10712      1     62     98       29.50          0.1815E+06
  10713      1     62     99       29.10          0.1815E+06
  10714      1     62    100       28.60          0.1815E+06
  10715      1     62    101       28.00          0.1815E+06
  10716      1     62    102       27.50          0.1815E+06
  10717      1     62    103       27.40          0.1815E+06
  10718      1     62    104       27.50          0.1815E+06
  10719      1     62    105       27.70          0.1815E+06
  10720      1     62    106       28.00          0.1815E+06
  10721      1     62    107       28.60          0.1815E+06
  10722      1     62    108       29.70          0.1815E+06
  10723      1     62    109       31.40          0.1815E+06
  10724      1     62    110       33.80          0.1815E+06
  10725      1     62    111       35.30          0.1815E+06
  10726      1     62    112       36.30          0.1815E+06
  10727      1     62    113       36.20          0.1815E+06
  10728      1     62    114       35.00          0.1815E+06
  10729      1     62    115       34.80          0.1815E+06
  10730      1     62    116       35.30          0.1815E+06
  10731      1     62    117       35.20          0.1815E+06
  10732      1     62    118       34.20          0.1815E+06
  10733      1     62    119       32.70          0.1815E+06
  10734      1     62    120       31.90          0.1815E+06
  10735      1     62    121       31.40          0.1815E+06
  10736      1     62    122       30.70          0.1815E+06
  10737      1     62    123       30.00          0.1815E+06
  10738      1     62    124       29.20          0.1815E+06
  10739      1     62    125       28.80          0.1815E+06
  10740      1     62    126       28.30          0.1815E+06
  10741      1     62    127       27.70          0.1815E+06
  10742      1     62    128       27.30          0.1815E+06
  10743      1     62    129       26.90          0.1815E+06
  10744      1     62    130       26.40          0.1815E+06
  10745      1     62    131       26.20          0.1815E+06
  10746      1     62    132       26.00          0.1815E+06
  10747      1     62    133       25.80          0.1815E+06
  10748      1     62    134       25.70          0.1815E+06
  10749      1     62    135       25.70          0.1815E+06
  10750      1     62    136       25.40          0.1815E+06
  10751      1     62    137       25.00          0.1815E+06
  10752      1     62    138       24.60          0.1815E+06
  10753      1     62    139       24.60          0.1815E+06
  10754      1     62    140       24.80          0.1815E+06
  10755      1     62    141       24.70          0.1815E+06
  10756      1     62    142       24.90          0.1815E+06
  10757      1     62    143       25.60          0.1815E+06
  10758      1     62    144       26.90          0.1815E+06
  10759      1     62    145       27.50          0.1815E+06
  10760      1     62    146       26.90          0.1815E+06
  10761      1     62    147       25.30          0.1815E+06
  10762      1     62    148       24.80          0.1815E+06
  10763      1     62    149       25.40          0.1815E+06
  10764      1     62    150       29.00          0.1815E+06
  10765      1     62    151       31.60          0.1815E+06
  10766      1     62    152       32.90          0.1815E+06
  10767      1     62    153       34.30          0.1815E+06
  10768      1     62    154       34.10          0.1815E+06
  10769      1     62    155       35.10          0.1815E+06
  10770      1     62    156       37.00          0.1815E+06
  10771      1     62    157       38.10          0.1815E+06
  10772      1     62    158       39.60          0.1815E+06
  10773      1     62    159       40.00          0.1815E+06
  10774      1     62    160       40.40          0.1815E+06
  10775      1     62    161       39.70          0.1815E+06
  10776      1     62    162       40.40          0.1815E+06
  10777      1     62    163       41.30          0.1815E+06
  10778      1     62    164       41.80          0.1815E+06
  10779      1     62    165       42.50          0.1815E+06
  10780      1     62    166       42.60          0.1815E+06
  10781      1     62    167       42.20          0.1815E+06
  10782      1     62    168       43.70          0.1815E+06
  10783      1     62    169       46.20          0.1815E+06
  10784      1     62    170       47.90          0.1815E+06
  10785      1     62    171       50.10          0.1815E+06
  10786      1     62    172       53.60          0.1815E+06
  10787      1     62    173       58.80          0.1815E+06
  10788      1     62    174       65.90          0.1815E+06
  10789      1     63      1      -9.500          0.1815E+06
  10790      1     63      2      -8.200          0.1815E+06
  10791      1     63      3      -8.200          0.1815E+06
  10792      1     63      4      -7.490          0.1815E+06
  10793      1     63      5      -7.790          0.1815E+06
  10794      1     63      6      -7.590          0.1815E+06
  10795      1     63      7      -7.790          0.1815E+06
  10796      1     63      8      -7.290          0.1815E+06
  10797      1     63      9      -7.290          0.1815E+06
  10798      1     63     10      -5.800          0.1815E+06
  10799      1     63     11      -5.700          0.1815E+06
  10800      1     63     12      -5.500          0.1815E+06
  10801      1     63     13      -4.900          0.1815E+06
  10802      1     63     14      -3.700          0.1815E+06
  10803      1     63     15      -3.700          0.1815E+06
  10804      1     63     16      -4.170          0.1815E+06
  10805      1     63     17      -4.000          0.1815E+06
  10806      1     63     18      -3.400          0.1815E+06
  10807      1     63     19      -3.200          0.1815E+06
  10808      1     63     20      -2.200          0.1815E+06
  10809      1     63     21      -2.200          0.1815E+06
  10810      1     63     22      -1.200          0.1815E+06
  10811      1     63     23      0.4300          0.1815E+06
  10812      1     63     24       4.430          0.1815E+06
  10813      1     63     25       6.430          0.1815E+06
  10814      1     63     26       6.430          0.1815E+06
  10815      1     63     27       8.520          0.1815E+06
  10816      1     63     28       9.920          0.1815E+06
  10817      1     63     29       8.380          0.1815E+06
  10818      1     63     30       10.72          0.1815E+06
  10819      1     63     31       8.250          0.1815E+06
  10820      1     63     32       8.640          0.1815E+06
  10821      1     63     33       10.14          0.1815E+06
  10822      1     63     34       10.97          0.1815E+06
  10823      1     63     35       10.36          0.1815E+06
  10824      1     63     36       9.890          0.1815E+06
  10825      1     63     37       10.60          0.1815E+06
  10826      1     63     38       13.27          0.1815E+06
  10827      1     63     39       10.00          0.1815E+06
  10828      1     63     40       9.770          0.1815E+06
  10829      1     63     41       9.850          0.1815E+06
  10830      1     63     42       10.77          0.1815E+06
  10831      1     63     43       11.23          0.1815E+06
  10832      1     63     44       9.340          0.1815E+06
  10833      1     63     45       10.43          0.1815E+06
  10834      1     63     46       7.730          0.1815E+06
  10835      1     63     47       8.560          0.1815E+06
  10836      1     63     48       9.260          0.1815E+06
  10837      1     63     49       13.00          0.1815E+06
  10838      1     63     50       13.30          0.1815E+06
  10839      1     63     51       11.72          0.1815E+06
  10840      1     63     52       12.09          0.1815E+06
  10841      1     63     53       12.71          0.1815E+06
  10842      1     63     54       13.90          0.1815E+06
  10843      1     63     55       14.64          0.1815E+06
  10844      1     63     56       15.13          0.1815E+06
  10845      1     63     57       14.94          0.1815E+06
  10846      1     63     58       15.52          0.1815E+06
  10847      1     63     59       17.14          0.1815E+06
  10848      1     63     60       17.07          0.1815E+06
  10849      1     63     61       17.87          0.1815E+06
  10850      1     63     62       19.29          0.1815E+06
  10851      1     63     63       21.38          0.1815E+06
  10852      1     63     64       23.75          0.1815E+06
  10853      1     63     65       30.50          0.1815E+06
  10854      1     63     66       34.52          0.1815E+06
  10855      1     63     67       36.33          0.1815E+06
  10856      1     63     68       37.25          0.1815E+06
  10857      1     63     69       37.65          0.1815E+06
  10858      1     63     70       37.65          0.1815E+06
  10859      1     63     71       37.02          0.1815E+06
  10860      1     63     72       37.33          0.1815E+06
  10861      1     63     73       37.06          0.1815E+06
  10862      1     63     74       36.70          0.1815E+06
  10863      1     63     75       36.90          0.1815E+06
  10864      1     63     76       37.60          0.1815E+06
  10865      1     63     77       38.40          0.1815E+06
  10866      1     63     78       38.30          0.1815E+06
  10867      1     63     79       38.30          0.1815E+06
  10868      1     63     80       38.30          0.1815E+06
  10869      1     63     81       38.30          0.1815E+06
  10870      1     63     82       38.20          0.1815E+06
  10871      1     63     83       38.00          0.1815E+06
  10872      1     63     84       38.00          0.1815E+06
  10873      1     63     85       38.00          0.1815E+06
  10874      1     63     86       38.30          0.1815E+06
  10875      1     63     87       38.30          0.1815E+06
  10876      1     63     88       38.30          0.1815E+06
  10877      1     63     89       38.40          0.1815E+06
  10878      1     63     90       38.10          0.1815E+06
  10879      1     63     91       37.00          0.1815E+06
  10880      1     63     92       35.50          0.1815E+06
  10881      1     63     93       33.00          0.1815E+06
  10882      1     63     94       31.90          0.1815E+06
  10883      1     63     95       31.50          0.1815E+06
  10884      1     63     96       30.60          0.1815E+06
  10885      1     63     97       30.10          0.1815E+06
  10886      1     63     98       29.90          0.1815E+06
  10887      1     63     99       29.70          0.1815E+06
  10888      1     63    100       29.60          0.1815E+06
  10889      1     63    101       29.40          0.1815E+06
  10890      1     63    102       29.70          0.1815E+06
  10891      1     63    103       29.30          0.1815E+06
  10892      1     63    104       29.20          0.1815E+06
  10893      1     63    105       29.00          0.1815E+06
  10894      1     63    106       29.10          0.1815E+06
  10895      1     63    107       30.30          0.1815E+06
  10896      1     63    108       32.00          0.1815E+06
  10897      1     63    109       33.60          0.1815E+06
  10898      1     63    110       35.60          0.1815E+06
  10899      1     63    111       36.90          0.1815E+06
  10900      1     63    112       37.80          0.1815E+06
  10901      1     63    113       36.80          0.1815E+06
  10902      1     63    114       36.00          0.1815E+06
  10903      1     63    115       36.00          0.1815E+06
  10904      1     63    116       36.30          0.1815E+06
  10905      1     63    117       36.00          0.1815E+06
  10906      1     63    118       34.80          0.1815E+06
  10907      1     63    119       33.50          0.1815E+06
  10908      1     63    120       32.70          0.1815E+06
  10909      1     63    121       31.90          0.1815E+06
  10910      1     63    122       31.20          0.1815E+06
  10911      1     63    123       30.20          0.1815E+06
  10912      1     63    124       29.10          0.1815E+06
  10913      1     63    125       28.90          0.1815E+06
  10914      1     63    126       28.70          0.1815E+06
  10915      1     63    127       28.20          0.1815E+06
  10916      1     63    128       27.60          0.1815E+06
  10917      1     63    129       26.90          0.1815E+06
  10918      1     63    130       26.40          0.1815E+06
  10919      1     63    131       26.30          0.1815E+06
  10920      1     63    132       26.60          0.1815E+06
  10921      1     63    133       26.90          0.1815E+06
  10922      1     63    134       27.00          0.1815E+06
  10923      1     63    135       26.60          0.1815E+06
  10924      1     63    136       26.40          0.1815E+06
  10925      1     63    137       26.00          0.1815E+06
  10926      1     63    138       25.40          0.1815E+06
  10927      1     63    139       25.20          0.1815E+06
  10928      1     63    140       25.70          0.1815E+06
  10929      1     63    141       25.40          0.1815E+06
  10930      1     63    142       25.50          0.1815E+06
  10931      1     63    143       26.50          0.1815E+06
  10932      1     63    144       27.80          0.1815E+06
  10933      1     63    145       28.30          0.1815E+06
  10934      1     63    146       27.70          0.1815E+06
  10935      1     63    147       26.30          0.1815E+06
  10936      1     63    148       25.50          0.1815E+06
  10937      1     63    149       25.10          0.1815E+06
  10938      1     63    150       26.00          0.1815E+06
  10939      1     63    151       28.00          0.1815E+06
  10940      1     63    152       28.90          0.1815E+06
  10941      1     63    153       30.20          0.1815E+06
  10942      1     63    154       29.80          0.1815E+06
  10943      1     63    155       31.60          0.1815E+06
  10944      1     63    156       34.80          0.1815E+06
  10945      1     63    157       34.60          0.1815E+06
  10946      1     63    158       35.20          0.1815E+06
  10947      1     63    159       36.50          0.1815E+06
  10948      1     63    160       36.80          0.1815E+06
  10949      1     63    161       37.10          0.1815E+06
  10950      1     63    162       38.00          0.1815E+06
  10951      1     63    163       38.40          0.1815E+06
  10952      1     63    164       38.20          0.1815E+06
  10953      1     63    165       38.30          0.1815E+06
  10954      1     63    166       39.40          0.1815E+06
  10955      1     63    167       39.70          0.1815E+06
  10956      1     63    168       42.00          0.1815E+06
  10957      1     63    169       45.30          0.1815E+06
  10958      1     63    170       47.70          0.1815E+06
  10959      1     63    171       50.00          0.1815E+06
  10960      1     63    172       53.10          0.1815E+06
  10961      1     63    173       59.70          0.1815E+06
  10962      1     63    174       67.20          0.1815E+06
  10963      1     64      1      -10.50          0.1815E+06
  10964      1     64      2      -9.290          0.1815E+06
  10965      1     64      3      -9.290          0.1815E+06
  10966      1     64      4      -8.750          0.1815E+06
  10967      1     64      5      -8.740          0.1815E+06
  10968      1     64      6      -8.660          0.1815E+06
  10969      1     64      7      -8.500          0.1815E+06
  10970      1     64      8      -7.300          0.1815E+06
  10971      1     64      9      -7.300          0.1815E+06
  10972      1     64     10      -6.400          0.1815E+06
  10973      1     64     11      -5.700          0.1815E+06
  10974      1     64     12      -4.860          0.1815E+06
  10975      1     64     13      -5.000          0.1815E+06
  10976      1     64     14      -5.000          0.1815E+06
  10977      1     64     15      -5.000          0.1815E+06
  10978      1     64     16      -5.050          0.1815E+06
  10979      1     64     17      -4.500          0.1815E+06
  10980      1     64     18      -3.600          0.1815E+06
  10981      1     64     19      -3.200          0.1815E+06
  10982      1     64     20      -2.200          0.1815E+06
  10983      1     64     21      -2.200          0.1815E+06
  10984      1     64     22      -1.200          0.1815E+06
  10985      1     64     23      0.4400          0.1815E+06
  10986      1     64     24       2.440          0.1815E+06
  10987      1     64     25       5.440          0.1815E+06
  10988      1     64     26       5.440          0.1815E+06
  10989      1     64     27       7.440          0.1815E+06
  10990      1     64     28       8.710          0.1815E+06
  10991      1     64     29       8.460          0.1815E+06
  10992      1     64     30       7.340          0.1815E+06
  10993      1     64     31       10.31          0.1815E+06
  10994      1     64     32       8.900          0.1815E+06
  10995      1     64     33       13.30          0.1815E+06
  10996      1     64     34       11.30          0.1815E+06
  10997      1     64     35       11.06          0.1815E+06
  10998      1     64     36       10.43          0.1815E+06
  10999      1     64     37       10.32          0.1815E+06
  11000      1     64     38       13.00          0.1815E+06
  11001      1     64     39       9.940          0.1815E+06
  11002      1     64     40       9.770          0.1815E+06
  11003      1     64     41       9.760          0.1815E+06
  11004      1     64     42       9.730          0.1815E+06
  11005      1     64     43       9.670          0.1815E+06
  11006      1     64     44       9.810          0.1815E+06
  11007      1     64     45       9.590          0.1815E+06
  11008      1     64     46       8.850          0.1815E+06
  11009      1     64     47       8.000          0.1815E+06
  11010      1     64     48       8.180          0.1815E+06
  11011      1     64     49       10.27          0.1815E+06
  11012      1     64     50       11.18          0.1815E+06
  11013      1     64     51       13.06          0.1815E+06
  11014      1     64     52       13.43          0.1815E+06
  11015      1     64     53       13.60          0.1815E+06
  11016      1     64     54       13.64          0.1815E+06
  11017      1     64     55       14.40          0.1815E+06
  11018      1     64     56       14.64          0.1815E+06
  11019      1     64     57       14.51          0.1815E+06
  11020      1     64     58       15.36          0.1815E+06
  11021      1     64     59       15.98          0.1815E+06
  11022      1     64     60       16.57          0.1815E+06
  11023      1     64     61       17.11          0.1815E+06
  11024      1     64     62       18.78          0.1815E+06
  11025      1     64     63       20.73          0.1815E+06
  11026      1     64     64       24.06          0.1815E+06
  11027      1     64     65       27.64          0.1815E+06
  11028      1     64     66       34.29          0.1815E+06
  11029      1     64     67       36.15          0.1815E+06
  11030      1     64     68       36.36          0.1815E+06
  11031      1     64     69       36.29          0.1815E+06
  11032      1     64     70       36.77          0.1815E+06
  11033      1     64     71       37.06          0.1815E+06
  11034      1     64     72       38.09          0.1815E+06
  11035      1     64     73       36.93          0.1815E+06
  11036      1     64     74       36.83          0.1815E+06
  11037      1     64     75       36.50          0.1815E+06
  11038      1     64     76       36.70          0.1815E+06
  11039      1     64     77       37.30          0.1815E+06
  11040      1     64     78       37.70          0.1815E+06
  11041      1     64     79       38.00          0.1815E+06
  11042      1     64     80       38.00          0.1815E+06
  11043      1     64     81       38.20          0.1815E+06
  11044      1     64     82       38.10          0.1815E+06
  11045      1     64     83       38.00          0.1815E+06
  11046      1     64     84       38.00          0.1815E+06
  11047      1     64     85       38.00          0.1815E+06
  11048      1     64     86       38.10          0.1815E+06
  11049      1     64     87       38.40          0.1815E+06
  11050      1     64     88       38.50          0.1815E+06
  11051      1     64     89       38.50          0.1815E+06
  11052      1     64     90       38.10          0.1815E+06
  11053      1     64     91       37.20          0.1815E+06
  11054      1     64     92       35.30          0.1815E+06
  11055      1     64     93       34.10          0.1815E+06
  11056      1     64     94       36.10          0.1815E+06
  11057      1     64     95       35.50          0.1815E+06
  11058      1     64     96       34.90          0.1815E+06
  11059      1     64     97       34.20          0.1815E+06
  11060      1     64     98       33.70          0.1815E+06
  11061      1     64     99       33.50          0.1815E+06
  11062      1     64    100       32.40          0.1815E+06
  11063      1     64    101       32.00          0.1815E+06
  11064      1     64    102       32.20          0.1815E+06
  11065      1     64    103       31.90          0.1815E+06
  11066      1     64    104       31.80          0.1815E+06
  11067      1     64    105       31.80          0.1815E+06
  11068      1     64    106       31.80          0.1815E+06
  11069      1     64    107       32.80          0.1815E+06
  11070      1     64    108       34.80          0.1815E+06
  11071      1     64    109       35.80          0.1815E+06
  11072      1     64    110       36.60          0.1815E+06
  11073      1     64    111       37.60          0.1815E+06
  11074      1     64    112       38.20          0.1815E+06
  11075      1     64    113       37.20          0.1815E+06
  11076      1     64    114       36.90          0.1815E+06
  11077      1     64    115       36.70          0.1815E+06
  11078      1     64    116       36.50          0.1815E+06
  11079      1     64    117       36.30          0.1815E+06
  11080      1     64    118       35.40          0.1815E+06
  11081      1     64    119       34.10          0.1815E+06
  11082      1     64    120       33.10          0.1815E+06
  11083      1     64    121       32.30          0.1815E+06
  11084      1     64    122       31.60          0.1815E+06
  11085      1     64    123       30.80          0.1815E+06
  11086      1     64    124       29.60          0.1815E+06
  11087      1     64    125       28.90          0.1815E+06
  11088      1     64    126       28.70          0.1815E+06
  11089      1     64    127       28.30          0.1815E+06
  11090      1     64    128       27.70          0.1815E+06
  11091      1     64    129       27.20          0.1815E+06
  11092      1     64    130       27.10          0.1815E+06
  11093      1     64    131       27.30          0.1815E+06
  11094      1     64    132       27.70          0.1815E+06
  11095      1     64    133       28.00          0.1815E+06
  11096      1     64    134       27.90          0.1815E+06
  11097      1     64    135       27.50          0.1815E+06
  11098      1     64    136       27.10          0.1815E+06
  11099      1     64    137       26.80          0.1815E+06
  11100      1     64    138       26.50          0.1815E+06
  11101      1     64    139       26.50          0.1815E+06
  11102      1     64    140       26.50          0.1815E+06
  11103      1     64    141       26.60          0.1815E+06
  11104      1     64    142       26.70          0.1815E+06
  11105      1     64    143       27.40          0.1815E+06
  11106      1     64    144       28.50          0.1815E+06
  11107      1     64    145       29.00          0.1815E+06
  11108      1     64    146       28.40          0.1815E+06
  11109      1     64    147       27.40          0.1815E+06
  11110      1     64    148       26.50          0.1815E+06
  11111      1     64    149       26.00          0.1815E+06
  11112      1     64    150       25.40          0.1815E+06
  11113      1     64    151       25.00          0.1815E+06
  11114      1     64    152       24.90          0.1815E+06
  11115      1     64    153       24.70          0.1815E+06
  11116      1     64    154       25.70          0.1815E+06
  11117      1     64    155       28.20          0.1815E+06
  11118      1     64    156       30.70          0.1815E+06
  11119      1     64    157       31.00          0.1815E+06
  11120      1     64    158       30.90          0.1815E+06
  11121      1     64    159       30.90          0.1815E+06
  11122      1     64    160       30.40          0.1815E+06
  11123      1     64    161       30.90          0.1815E+06
  11124      1     64    162       31.10          0.1815E+06
  11125      1     64    163       31.90          0.1815E+06
  11126      1     64    164       32.50          0.1815E+06
  11127      1     64    165       33.00          0.1815E+06
  11128      1     64    166       35.30          0.1815E+06
  11129      1     64    167       37.50          0.1815E+06
  11130      1     64    168       40.40          0.1815E+06
  11131      1     64    169       43.70          0.1815E+06
  11132      1     64    170       46.70          0.1815E+06
  11133      1     64    171       48.40          0.1815E+06
  11134      1     64    172       50.40          0.1815E+06
  11135      1     64    173       56.20          0.1815E+06
  11136      1     64    174       61.50          0.1815E+06
  11137      1     65      1      -10.58          0.1815E+06
  11138      1     65      2      -9.610          0.1815E+06
  11139      1     65      3      -9.610          0.1815E+06
  11140      1     65      4      -9.400          0.1815E+06
  11141      1     65      5      -9.200          0.1815E+06
  11142      1     65      6      -9.350          0.1815E+06
  11143      1     65      7      -8.800          0.1815E+06
  11144      1     65      8      -7.700          0.1815E+06
  11145      1     65      9      -7.700          0.1815E+06
  11146      1     65     10      -6.900          0.1815E+06
  11147      1     65     11      -6.600          0.1815E+06
  11148      1     65     12      -5.210          0.1815E+06
  11149      1     65     13      -5.000          0.1815E+06
  11150      1     65     14      -5.000          0.1815E+06
  11151      1     65     15      -5.000          0.1815E+06
  11152      1     65     16      -5.050          0.1815E+06
  11153      1     65     17      -4.500          0.1815E+06
  11154      1     65     18      -3.800          0.1815E+06
  11155      1     65     19      -3.400          0.1815E+06
  11156      1     65     20      -3.200          0.1815E+06
  11157      1     65     21      -3.200          0.1815E+06
  11158      1     65     22      -1.880          0.1815E+06
  11159      1     65     23      0.4300          0.1815E+06
  11160      1     65     24       1.430          0.1815E+06
  11161      1     65     25       4.430          0.1815E+06
  11162      1     65     26       4.430          0.1815E+06
  11163      1     65     27       6.440          0.1815E+06
  11164      1     65     28       9.060          0.1815E+06
  11165      1     65     29       12.31          0.1815E+06
  11166      1     65     30       8.170          0.1815E+06
  11167      1     65     31       8.860          0.1815E+06
  11168      1     65     32       8.720          0.1815E+06
  11169      1     65     33       9.170          0.1815E+06
  11170      1     65     34       9.430          0.1815E+06
  11171      1     65     35       11.32          0.1815E+06
  11172      1     65     36       10.15          0.1815E+06
  11173      1     65     37       9.900          0.1815E+06
  11174      1     65     38       10.32          0.1815E+06
  11175      1     65     39       12.42          0.1815E+06
  11176      1     65     40       10.09          0.1815E+06
  11177      1     65     41       13.10          0.1815E+06
  11178      1     65     42       11.18          0.1815E+06
  11179      1     65     43       9.190          0.1815E+06
  11180      1     65     44       10.47          0.1815E+06
  11181      1     65     45       9.390          0.1815E+06
  11182      1     65     46       9.890          0.1815E+06
  11183      1     65     47       8.840          0.1815E+06
  11184      1     65     48       7.650          0.1815E+06
  11185      1     65     49       8.600          0.1815E+06
  11186      1     65     50       12.98          0.1815E+06
  11187      1     65     51       13.65          0.1815E+06
  11188      1     65     52       13.26          0.1815E+06
  11189      1     65     53       13.65          0.1815E+06
  11190      1     65     54       13.76          0.1815E+06
  11191      1     65     55       13.44          0.1815E+06
  11192      1     65     56       13.89          0.1815E+06
  11193      1     65     57       14.60          0.1815E+06
  11194      1     65     58       15.57          0.1815E+06
  11195      1     65     59       16.31          0.1815E+06
  11196      1     65     60       16.79          0.1815E+06
  11197      1     65     61       16.98          0.1815E+06
  11198      1     65     62       17.62          0.1815E+06
  11199      1     65     63       18.75          0.1815E+06
  11200      1     65     64       21.37          0.1815E+06
  11201      1     65     65       25.51          0.1815E+06
  11202      1     65     66       31.86          0.1815E+06
  11203      1     65     67       34.77          0.1815E+06
  11204      1     65     68       35.13          0.1815E+06
  11205      1     65     69       35.15          0.1815E+06
  11206      1     65     70       35.06          0.1815E+06
  11207      1     65     71       35.81          0.1815E+06
  11208      1     65     72       36.68          0.1815E+06
  11209      1     65     73       37.02          0.1815E+06
  11210      1     65     74       36.95          0.1815E+06
  11211      1     65     75       36.51          0.1815E+06
  11212      1     65     76       36.70          0.1815E+06
  11213      1     65     77       36.80          0.1815E+06
  11214      1     65     78       37.00          0.1815E+06
  11215      1     65     79       37.20          0.1815E+06
  11216      1     65     80       37.20          0.1815E+06
  11217      1     65     81       37.30          0.1815E+06
  11218      1     65     82       37.70          0.1815E+06
  11219      1     65     83       37.80          0.1815E+06
  11220      1     65     84       37.80          0.1815E+06
  11221      1     65     85       37.70          0.1815E+06
  11222      1     65     86       37.50          0.1815E+06
  11223      1     65     87       37.40          0.1815E+06
  11224      1     65     88       38.20          0.1815E+06
  11225      1     65     89       38.50          0.1815E+06
  11226      1     65     90       38.00          0.1815E+06
  11227      1     65     91       36.80          0.1815E+06
  11228      1     65     92       35.10          0.1815E+06
  11229      1     65     93       37.60          0.1815E+06
  11230      1     65     94       38.10          0.1815E+06
  11231      1     65     95       38.20          0.1815E+06
  11232      1     65     96       38.70          0.1815E+06
  11233      1     65     97       38.40          0.1815E+06
  11234      1     65     98       37.70          0.1815E+06
  11235      1     65     99       36.80          0.1815E+06
  11236      1     65    100       35.50          0.1815E+06
  11237      1     65    101       35.00          0.1815E+06
  11238      1     65    102       35.20          0.1815E+06
  11239      1     65    103       35.00          0.1815E+06
  11240      1     65    104       35.10          0.1815E+06
  11241      1     65    105       35.30          0.1815E+06
  11242      1     65    106       35.20          0.1815E+06
  11243      1     65    107       34.90          0.1815E+06
  11244      1     65    108       36.30          0.1815E+06
  11245      1     65    109       37.10          0.1815E+06
  11246      1     65    110       37.10          0.1815E+06
  11247      1     65    111       37.50          0.1815E+06
  11248      1     65    112       38.10          0.1815E+06
  11249      1     65    113       37.60          0.1815E+06
  11250      1     65    114       37.70          0.1815E+06
  11251      1     65    115       37.70          0.1815E+06
  11252      1     65    116       37.00          0.1815E+06
  11253      1     65    117       36.50          0.1815E+06
  11254      1     65    118       35.50          0.1815E+06
  11255      1     65    119       34.30          0.1815E+06
  11256      1     65    120       33.30          0.1815E+06
  11257      1     65    121       32.50          0.1815E+06
  11258      1     65    122       31.90          0.1815E+06
  11259      1     65    123       31.40          0.1815E+06
  11260      1     65    124       31.10          0.1815E+06
  11261      1     65    125       29.70          0.1815E+06
  11262      1     65    126       28.70          0.1815E+06
  11263      1     65    127       28.20          0.1815E+06
  11264      1     65    128       27.80          0.1815E+06
  11265      1     65    129       27.70          0.1815E+06
  11266      1     65    130       27.90          0.1815E+06
  11267      1     65    131       28.20          0.1815E+06
  11268      1     65    132       28.60          0.1815E+06
  11269      1     65    133       28.80          0.1815E+06
  11270      1     65    134       28.70          0.1815E+06
  11271      1     65    135       28.40          0.1815E+06
  11272      1     65    136       27.90          0.1815E+06
  11273      1     65    137       27.60          0.1815E+06
  11274      1     65    138       27.70          0.1815E+06
  11275      1     65    139       27.70          0.1815E+06
  11276      1     65    140       27.70          0.1815E+06
  11277      1     65    141       27.60          0.1815E+06
  11278      1     65    142       27.70          0.1815E+06
  11279      1     65    143       28.20          0.1815E+06
  11280      1     65    144       29.10          0.1815E+06
  11281      1     65    145       30.00          0.1815E+06
  11282      1     65    146       29.10          0.1815E+06
  11283      1     65    147       28.20          0.1815E+06
  11284      1     65    148       27.70          0.1815E+06
  11285      1     65    149       27.30          0.1815E+06
  11286      1     65    150       26.80          0.1815E+06
  11287      1     65    151       26.30          0.1815E+06
  11288      1     65    152       25.80          0.1815E+06
  11289      1     65    153       25.40          0.1815E+06
  11290      1     65    154       25.20          0.1815E+06
  11291      1     65    155       25.10          0.1815E+06
  11292      1     65    156       27.20          0.1815E+06
  11293      1     65    157       28.60          0.1815E+06
  11294      1     65    158       29.50          0.1815E+06
  11295      1     65    159       30.20          0.1815E+06
  11296      1     65    160       29.60          0.1815E+06
  11297      1     65    161       29.10          0.1815E+06
  11298      1     65    162       29.10          0.1815E+06
  11299      1     65    163       29.20          0.1815E+06
  11300      1     65    164       29.80          0.1815E+06
  11301      1     65    165       31.30          0.1815E+06
  11302      1     65    166       34.20          0.1815E+06
  11303      1     65    167       36.70          0.1815E+06
  11304      1     65    168       38.90          0.1815E+06
  11305      1     65    169       41.50          0.1815E+06
  11306      1     65    170       44.60          0.1815E+06
  11307      1     65    171       46.70          0.1815E+06
  11308      1     65    172       48.50          0.1815E+06
  11309      1     65    173       52.20          0.1815E+06
  11310      1     65    174       55.80          0.1815E+06
  11311      1     66      1      -10.58          0.1815E+06
  11312      1     66      2      -9.610          0.1815E+06
  11313      1     66      3      -9.610          0.1815E+06
  11314      1     66      4      -9.400          0.1815E+06
  11315      1     66      5      -9.200          0.1815E+06
  11316      1     66      6      -9.350          0.1815E+06
  11317      1     66      7      -8.800          0.1815E+06
  11318      1     66      8      -7.700          0.1815E+06
  11319      1     66      9      -7.700          0.1815E+06
  11320      1     66     10      -6.900          0.1815E+06
  11321      1     66     11      -6.600          0.1815E+06
  11322      1     66     12      -5.210          0.1815E+06
  11323      1     66     13      -5.000          0.1815E+06
  11324      1     66     14      -5.000          0.1815E+06
  11325      1     66     15      -5.000          0.1815E+06
  11326      1     66     16      -5.050          0.1815E+06
  11327      1     66     17      -4.500          0.1815E+06
  11328      1     66     18      -3.800          0.1815E+06
  11329      1     66     19      -3.400          0.1815E+06
  11330      1     66     20      -3.200          0.1815E+06
  11331      1     66     21      -3.200          0.1815E+06
  11332      1     66     22      -1.880          0.1815E+06
  11333      1     66     23      0.4300          0.1815E+06
  11334      1     66     24       1.430          0.1815E+06
  11335      1     66     25       4.430          0.1815E+06
  11336      1     66     26       4.430          0.1815E+06
  11337      1     66     27       6.440          0.1815E+06
  11338      1     66     28       8.310          0.1815E+06
  11339      1     66     29       10.89          0.1815E+06
  11340      1     66     30       7.960          0.1815E+06
  11341      1     66     31       7.730          0.1815E+06
  11342      1     66     32       9.220          0.1815E+06
  11343      1     66     33       9.230          0.1815E+06
  11344      1     66     34       11.36          0.1815E+06
  11345      1     66     35       11.35          0.1815E+06
  11346      1     66     36       10.53          0.1815E+06
  11347      1     66     37       9.710          0.1815E+06
  11348      1     66     38       8.680          0.1815E+06
  11349      1     66     39       10.06          0.1815E+06
  11350      1     66     40       10.32          0.1815E+06
  11351      1     66     41       11.47          0.1815E+06
  11352      1     66     42       10.86          0.1815E+06
  11353      1     66     43       12.07          0.1815E+06
  11354      1     66     44       9.400          0.1815E+06
  11355      1     66     45       8.820          0.1815E+06
  11356      1     66     46       8.850          0.1815E+06
  11357      1     66     47       8.250          0.1815E+06
  11358      1     66     48       6.590          0.1815E+06
  11359      1     66     49       8.220          0.1815E+06
  11360      1     66     50       11.80          0.1815E+06
  11361      1     66     51       13.40          0.1815E+06
  11362      1     66     52       13.64          0.1815E+06
  11363      1     66     53       13.31          0.1815E+06
  11364      1     66     54       13.10          0.1815E+06
  11365      1     66     55       12.82          0.1815E+06
  11366      1     66     56       13.68          0.1815E+06
  11367      1     66     57       14.93          0.1815E+06
  11368      1     66     58       15.46          0.1815E+06
  11369      1     66     59       16.02          0.1815E+06
  11370      1     66     60       16.35          0.1815E+06
  11371      1     66     61       16.45          0.1815E+06
  11372      1     66     62       16.26          0.1815E+06
  11373      1     66     63       17.70          0.1815E+06
  11374      1     66     64       18.95          0.1815E+06
  11375      1     66     65       22.37          0.1815E+06
  11376      1     66     66       25.71          0.1815E+06
  11377      1     66     67       30.37          0.1815E+06
  11378      1     66     68       34.02          0.1815E+06
  11379      1     66     69       34.43          0.1815E+06
  11380      1     66     70       34.34          0.1815E+06
  11381      1     66     71       35.81          0.1815E+06
  11382      1     66     72       35.95          0.1815E+06
  11383      1     66     73       37.04          0.1815E+06
  11384      1     66     74       36.68          0.1815E+06
  11385      1     66     75       35.91          0.1815E+06
  11386      1     66     76       36.43          0.1815E+06
  11387      1     66     77       36.60          0.1815E+06
  11388      1     66     78       36.70          0.1815E+06
  11389      1     66     79       36.70          0.1815E+06
  11390      1     66     80       36.60          0.1815E+06
  11391      1     66     81       36.80          0.1815E+06
  11392      1     66     82       37.00          0.1815E+06
  11393      1     66     83       37.30          0.1815E+06
  11394      1     66     84       37.30          0.1815E+06
  11395      1     66     85       37.20          0.1815E+06
  11396      1     66     86       37.00          0.1815E+06
  11397      1     66     87       36.70          0.1815E+06
  11398      1     66     88       36.80          0.1815E+06
  11399      1     66     89       37.50          0.1815E+06
  11400      1     66     90       37.10          0.1815E+06
  11401      1     66     91       36.20          0.1815E+06
  11402      1     66     92       36.70          0.1815E+06
  11403      1     66     93       38.70          0.1815E+06
  11404      1     66     94       38.50          0.1815E+06
  11405      1     66     95       38.30          0.1815E+06
  11406      1     66     96       38.50          0.1815E+06
  11407      1     66     97       38.80          0.1815E+06
  11408      1     66     98       38.80          0.1815E+06
  11409      1     66     99       38.60          0.1815E+06
  11410      1     66    100       38.40          0.1815E+06
  11411      1     66    101       37.90          0.1815E+06
  11412      1     66    102       37.70          0.1815E+06
  11413      1     66    103       37.30          0.1815E+06
  11414      1     66    104       37.30          0.1815E+06
  11415      1     66    105       37.20          0.1815E+06
  11416      1     66    106       37.20          0.1815E+06
  11417      1     66    107       37.00          0.1815E+06
  11418      1     66    108       37.60          0.1815E+06
  11419      1     66    109       37.80          0.1815E+06
  11420      1     66    110       37.70          0.1815E+06
  11421      1     66    111       37.80          0.1815E+06
  11422      1     66    112       38.00          0.1815E+06
  11423      1     66    113       38.10          0.1815E+06
  11424      1     66    114       38.10          0.1815E+06
  11425      1     66    115       38.20          0.1815E+06
  11426      1     66    116       37.90          0.1815E+06
  11427      1     66    117       37.00          0.1815E+06
  11428      1     66    118       35.70          0.1815E+06
  11429      1     66    119       34.40          0.1815E+06
  11430      1     66    120       33.50          0.1815E+06
  11431      1     66    121       32.70          0.1815E+06
  11432      1     66    122       32.00          0.1815E+06
  11433      1     66    123       31.30          0.1815E+06
  11434      1     66    124       30.60          0.1815E+06
  11435      1     66    125       29.90          0.1815E+06
  11436      1     66    126       29.00          0.1815E+06
  11437      1     66    127       28.50          0.1815E+06
  11438      1     66    128       28.60          0.1815E+06
  11439      1     66    129       28.60          0.1815E+06
  11440      1     66    130       28.60          0.1815E+06
  11441      1     66    131       29.00          0.1815E+06
  11442      1     66    132       29.40          0.1815E+06
  11443      1     66    133       30.10          0.1815E+06
  11444      1     66    134       30.20          0.1815E+06
  11445      1     66    135       28.70          0.1815E+06
  11446      1     66    136       28.30          0.1815E+06
  11447      1     66    137       28.30          0.1815E+06
  11448      1     66    138       28.20          0.1815E+06
  11449      1     66    139       28.30          0.1815E+06
  11450      1     66    140       28.40          0.1815E+06
  11451      1     66    141       28.50          0.1815E+06
  11452      1     66    142       28.50          0.1815E+06
  11453      1     66    143       28.70          0.1815E+06
  11454      1     66    144       29.60          0.1815E+06
  11455      1     66    145       30.80          0.1815E+06
  11456      1     66    146       30.50          0.1815E+06
  11457      1     66    147       28.60          0.1815E+06
  11458      1     66    148       28.40          0.1815E+06
  11459      1     66    149       28.30          0.1815E+06
  11460      1     66    150       28.10          0.1815E+06
  11461      1     66    151       27.90          0.1815E+06
  11462      1     66    152       27.70          0.1815E+06
  11463      1     66    153       27.60          0.1815E+06
  11464      1     66    154       27.50          0.1815E+06
  11465      1     66    155       27.40          0.1815E+06
  11466      1     66    156       28.00          0.1815E+06
  11467      1     66    157       28.90          0.1815E+06
  11468      1     66    158       29.90          0.1815E+06
  11469      1     66    159       30.00          0.1815E+06
  11470      1     66    160       29.90          0.1815E+06
  11471      1     66    161       30.10          0.1815E+06
  11472      1     66    162       29.80          0.1815E+06
  11473      1     66    163       29.50          0.1815E+06
  11474      1     66    164       30.50          0.1815E+06
  11475      1     66    165       33.70          0.1815E+06
  11476      1     66    166       36.40          0.1815E+06
  11477      1     66    167       38.60          0.1815E+06
  11478      1     66    168       40.20          0.1815E+06
  11479      1     66    169       41.20          0.1815E+06
  11480      1     66    170       42.70          0.1815E+06
  11481      1     66    171       44.10          0.1815E+06
  11482      1     66    172       45.50          0.1815E+06
  11483      1     66    173       47.90          0.1815E+06
  11484      1     66    174       50.80          0.1815E+06
  11485      1     67      1      -10.56          0.1815E+06
  11486      1     67      2      -9.370          0.1815E+06
  11487      1     67      3      -9.370          0.1815E+06
  11488      1     67      4      -9.590          0.1815E+06
  11489      1     67      5      -9.520          0.1815E+06
  11490      1     67      6      -8.910          0.1815E+06
  11491      1     67      7      -8.110          0.1815E+06
  11492      1     67      8      -6.110          0.1815E+06
  11493      1     67      9      -6.110          0.1815E+06
  11494      1     67     10      -6.900          0.1815E+06
  11495      1     67     11      -6.600          0.1815E+06
  11496      1     67     12      -5.210          0.1815E+06
  11497      1     67     13      -5.260          0.1815E+06
  11498      1     67     14      -4.960          0.1815E+06
  11499      1     67     15      -4.960          0.1815E+06
  11500      1     67     16      -3.730          0.1815E+06
  11501      1     67     17      -2.210          0.1815E+06
  11502      1     67     18      -4.310          0.1815E+06
  11503      1     67     19      -3.710          0.1815E+06
  11504      1     67     20      -2.910          0.1815E+06
  11505      1     67     21      -2.910          0.1815E+06
  11506      1     67     22      -2.110          0.1815E+06
  11507      1     67     23      0.4300          0.1815E+06
  11508      1     67     24      0.9300          0.1815E+06
  11509      1     67     25       3.440          0.1815E+06
  11510      1     67     26       3.440          0.1815E+06
  11511      1     67     27       5.440          0.1815E+06
  11512      1     67     28       10.68          0.1815E+06
  11513      1     67     29       10.94          0.1815E+06
  11514      1     67     30       11.19          0.1815E+06
  11515      1     67     31       11.76          0.1815E+06
  11516      1     67     32       10.51          0.1815E+06
  11517      1     67     33       10.59          0.1815E+06
  11518      1     67     34       10.19          0.1815E+06
  11519      1     67     35       10.72          0.1815E+06
  11520      1     67     36       11.34          0.1815E+06
  11521      1     67     37       10.14          0.1815E+06
  11522      1     67     38       11.72          0.1815E+06
  11523      1     67     39       9.970          0.1815E+06
  11524      1     67     40       10.06          0.1815E+06
  11525      1     67     41       10.14          0.1815E+06
  11526      1     67     42       10.68          0.1815E+06
  11527      1     67     43       10.02          0.1815E+06
  11528      1     67     44       9.140          0.1815E+06
  11529      1     67     45       9.460          0.1815E+06
  11530      1     67     46       11.77          0.1815E+06
  11531      1     67     47       10.57          0.1815E+06
  11532      1     67     48       9.140          0.1815E+06
  11533      1     67     49       7.690          0.1815E+06
  11534      1     67     50       9.270          0.1815E+06
  11535      1     67     51       9.860          0.1815E+06
  11536      1     67     52       12.64          0.1815E+06
  11537      1     67     53       12.85          0.1815E+06
  11538      1     67     54       11.89          0.1815E+06
  11539      1     67     55       13.63          0.1815E+06
  11540      1     67     56       14.13          0.1815E+06
  11541      1     67     57       14.82          0.1815E+06
  11542      1     67     58       15.43          0.1815E+06
  11543      1     67     59       15.53          0.1815E+06
  11544      1     67     60       15.47          0.1815E+06
  11545      1     67     61       15.78          0.1815E+06
  11546      1     67     62       16.04          0.1815E+06
  11547      1     67     63       16.70          0.1815E+06
  11548      1     67     64       17.64          0.1815E+06
  11549      1     67     65       19.54          0.1815E+06
  11550      1     67     66       22.25          0.1815E+06
  11551      1     67     67       25.86          0.1815E+06
  11552      1     67     68       30.98          0.1815E+06
  11553      1     67     69       31.45          0.1815E+06
  11554      1     67     70       34.88          0.1815E+06
  11555      1     67     71       34.93          0.1815E+06
  11556      1     67     72       35.04          0.1815E+06
  11557      1     67     73       35.27          0.1815E+06
  11558      1     67     74       35.25          0.1815E+06
  11559      1     67     75       35.49          0.1815E+06
  11560      1     67     76       35.86          0.1815E+06
  11561      1     67     77       36.57          0.1815E+06
  11562      1     67     78       36.30          0.1815E+06
  11563      1     67     79       36.40          0.1815E+06
  11564      1     67     80       36.50          0.1815E+06
  11565      1     67     81       36.40          0.1815E+06
  11566      1     67     82       36.40          0.1815E+06
  11567      1     67     83       36.60          0.1815E+06
  11568      1     67     84       36.80          0.1815E+06
  11569      1     67     85       36.60          0.1815E+06
  11570      1     67     86       36.50          0.1815E+06
  11571      1     67     87       36.50          0.1815E+06
  11572      1     67     88       36.10          0.1815E+06
  11573      1     67     89       35.10          0.1815E+06
  11574      1     67     90       35.10          0.1815E+06
  11575      1     67     91       35.40          0.1815E+06
  11576      1     67     92       37.90          0.1815E+06
  11577      1     67     93       38.50          0.1815E+06
  11578      1     67     94       38.30          0.1815E+06
  11579      1     67     95       37.90          0.1815E+06
  11580      1     67     96       37.90          0.1815E+06
  11581      1     67     97       38.00          0.1815E+06
  11582      1     67     98       38.10          0.1815E+06
  11583      1     67     99       38.20          0.1815E+06
  11584      1     67    100       38.40          0.1815E+06
  11585      1     67    101       38.60          0.1815E+06
  11586      1     67    102       38.40          0.1815E+06
  11587      1     67    103       38.20          0.1815E+06
  11588      1     67    104       38.10          0.1815E+06
  11589      1     67    105       38.10          0.1815E+06
  11590      1     67    106       38.30          0.1815E+06
  11591      1     67    107       38.10          0.1815E+06
  11592      1     67    108       38.10          0.1815E+06
  11593      1     67    109       38.10          0.1815E+06
  11594      1     67    110       38.00          0.1815E+06
  11595      1     67    111       38.00          0.1815E+06
  11596      1     67    112       38.00          0.1815E+06
  11597      1     67    113       38.00          0.1815E+06
  11598      1     67    114       38.30          0.1815E+06
  11599      1     67    115       38.30          0.1815E+06
  11600      1     67    116       38.10          0.1815E+06
  11601      1     67    117       37.40          0.1815E+06
  11602      1     67    118       35.60          0.1815E+06
  11603      1     67    119       34.40          0.1815E+06
  11604      1     67    120       33.70          0.1815E+06
  11605      1     67    121       32.90          0.1815E+06
  11606      1     67    122       32.00          0.1815E+06
  11607      1     67    123       31.00          0.1815E+06
  11608      1     67    124       29.80          0.1815E+06
  11609      1     67    125       29.30          0.1815E+06
  11610      1     67    126       29.10          0.1815E+06
  11611      1     67    127       29.10          0.1815E+06
  11612      1     67    128       29.80          0.1815E+06
  11613      1     67    129       30.20          0.1815E+06
  11614      1     67    130       30.10          0.1815E+06
  11615      1     67    131       30.50          0.1815E+06
  11616      1     67    132       31.20          0.1815E+06
  11617      1     67    133       31.70          0.1815E+06
  11618      1     67    134       31.70          0.1815E+06
  11619      1     67    135       28.80          0.1815E+06
  11620      1     67    136       28.40          0.1815E+06
  11621      1     67    137       29.20          0.1815E+06
  11622      1     67    138       29.30          0.1815E+06
  11623      1     67    139       29.50          0.1815E+06
  11624      1     67    140       29.10          0.1815E+06
  11625      1     67    141       29.30          0.1815E+06
  11626      1     67    142       29.10          0.1815E+06
  11627      1     67    143       29.10          0.1815E+06
  11628      1     67    144       30.20          0.1815E+06
  11629      1     67    145       31.80          0.1815E+06
  11630      1     67    146       32.10          0.1815E+06
  11631      1     67    147       30.00          0.1815E+06
  11632      1     67    148       29.60          0.1815E+06
  11633      1     67    149       29.10          0.1815E+06
  11634      1     67    150       29.50          0.1815E+06
  11635      1     67    151       29.40          0.1815E+06
  11636      1     67    152       29.60          0.1815E+06
  11637      1     67    153       30.20          0.1815E+06
  11638      1     67    154       30.50          0.1815E+06
  11639      1     67    155       30.60          0.1815E+06
  11640      1     67    156       30.60          0.1815E+06
  11641      1     67    157       30.70          0.1815E+06
  11642      1     67    158       29.70          0.1815E+06
  11643      1     67    159       29.60          0.1815E+06
  11644      1     67    160       30.30          0.1815E+06
  11645      1     67    161       31.40          0.1815E+06
  11646      1     67    162       31.10          0.1815E+06
  11647      1     67    163       29.60          0.1815E+06
  11648      1     67    164       29.50          0.1815E+06
  11649      1     67    165       31.70          0.1815E+06
  11650      1     67    166       35.20          0.1815E+06
  11651      1     67    167       38.60          0.1815E+06
  11652      1     67    168       40.70          0.1815E+06
  11653      1     67    169       40.90          0.1815E+06
  11654      1     67    170       40.40          0.1815E+06
  11655      1     67    171       40.90          0.1815E+06
  11656      1     67    172       42.40          0.1815E+06
  11657      1     67    173       44.30          0.1815E+06
  11658      1     67    174       46.00          0.1815E+06
  11659      1     68      1      -10.41          0.1815E+06
  11660      1     68      2      -9.910          0.1815E+06
  11661      1     68      3      -9.910          0.1815E+06
  11662      1     68      4      -9.710          0.1815E+06
  11663      1     68      5      -9.520          0.1815E+06
  11664      1     68      6      -8.910          0.1815E+06
  11665      1     68      7      -7.010          0.1815E+06
  11666      1     68      8      -6.110          0.1815E+06
  11667      1     68      9      -6.110          0.1815E+06
  11668      1     68     10      -7.510          0.1815E+06
  11669      1     68     11      -5.610          0.1815E+06
  11670      1     68     12      -5.210          0.1815E+06
  11671      1     68     13      -5.310          0.1815E+06
  11672      1     68     14      -5.210          0.1815E+06
  11673      1     68     15      -5.210          0.1815E+06
  11674      1     68     16      -4.010          0.1815E+06
  11675      1     68     17      -4.510          0.1815E+06
  11676      1     68     18      -4.610          0.1815E+06
  11677      1     68     19      -3.720          0.1815E+06
  11678      1     68     20      -3.140          0.1815E+06
  11679      1     68     21      -3.140          0.1815E+06
  11680      1     68     22      -2.620          0.1815E+06
  11681      1     68     23      0.4300          0.1815E+06
  11682      1     68     24      0.4300          0.1815E+06
  11683      1     68     25       1.430          0.1815E+06
  11684      1     68     26       1.430          0.1815E+06
  11685      1     68     27       3.450          0.1815E+06
  11686      1     68     28       7.450          0.1815E+06
  11687      1     68     29       8.850          0.1815E+06
  11688      1     68     30       10.47          0.1815E+06
  11689      1     68     31       9.770          0.1815E+06
  11690      1     68     32       12.06          0.1815E+06
  11691      1     68     33       9.210          0.1815E+06
  11692      1     68     34       7.960          0.1815E+06
  11693      1     68     35       8.980          0.1815E+06
  11694      1     68     36       9.680          0.1815E+06
  11695      1     68     37       8.850          0.1815E+06
  11696      1     68     38       9.820          0.1815E+06
  11697      1     68     39       10.53          0.1815E+06
  11698      1     68     40       10.56          0.1815E+06
  11699      1     68     41       9.720          0.1815E+06
  11700      1     68     42       10.55          0.1815E+06
  11701      1     68     43       9.860          0.1815E+06
  11702      1     68     44       8.980          0.1815E+06
  11703      1     68     45       10.14          0.1815E+06
  11704      1     68     46       9.480          0.1815E+06
  11705      1     68     47       8.690          0.1815E+06
  11706      1     68     48       8.140          0.1815E+06
  11707      1     68     49       7.380          0.1815E+06
  11708      1     68     50       7.980          0.1815E+06
  11709      1     68     51       7.530          0.1815E+06
  11710      1     68     52       8.960          0.1815E+06
  11711      1     68     53       10.59          0.1815E+06
  11712      1     68     54       12.14          0.1815E+06
  11713      1     68     55       12.92          0.1815E+06
  11714      1     68     56       13.47          0.1815E+06
  11715      1     68     57       14.09          0.1815E+06
  11716      1     68     58       14.76          0.1815E+06
  11717      1     68     59       15.39          0.1815E+06
  11718      1     68     60       15.43          0.1815E+06
  11719      1     68     61       15.25          0.1815E+06
  11720      1     68     62       15.89          0.1815E+06
  11721      1     68     63       16.11          0.1815E+06
  11722      1     68     64       16.87          0.1815E+06
  11723      1     68     65       18.56          0.1815E+06
  11724      1     68     66       20.78          0.1815E+06
  11725      1     68     67       23.55          0.1815E+06
  11726      1     68     68       26.96          0.1815E+06
  11727      1     68     69       31.87          0.1815E+06
  11728      1     68     70       33.74          0.1815E+06
  11729      1     68     71       34.45          0.1815E+06
  11730      1     68     72       34.22          0.1815E+06
  11731      1     68     73       33.38          0.1815E+06
  11732      1     68     74       34.04          0.1815E+06
  11733      1     68     75       35.18          0.1815E+06
  11734      1     68     76       35.70          0.1815E+06
  11735      1     68     77       36.16          0.1815E+06
  11736      1     68     78       36.28          0.1815E+06
  11737      1     68     79       36.00          0.1815E+06
  11738      1     68     80       36.20          0.1815E+06
  11739      1     68     81       36.40          0.1815E+06
  11740      1     68     82       36.40          0.1815E+06
  11741      1     68     83       36.30          0.1815E+06
  11742      1     68     84       36.20          0.1815E+06
  11743      1     68     85       36.30          0.1815E+06
  11744      1     68     86       36.30          0.1815E+06
  11745      1     68     87       36.40          0.1815E+06
  11746      1     68     88       36.00          0.1815E+06
  11747      1     68     89       34.50          0.1815E+06
  11748      1     68     90       34.40          0.1815E+06
  11749      1     68     91       35.30          0.1815E+06
  11750      1     68     92       36.70          0.1815E+06
  11751      1     68     93       38.30          0.1815E+06
  11752      1     68     94       38.30          0.1815E+06
  11753      1     68     95       38.10          0.1815E+06
  11754      1     68     96       38.00          0.1815E+06
  11755      1     68     97       38.00          0.1815E+06
  11756      1     68     98       38.00          0.1815E+06
  11757      1     68     99       38.00          0.1815E+06
  11758      1     68    100       38.10          0.1815E+06
  11759      1     68    101       38.30          0.1815E+06
  11760      1     68    102       38.30          0.1815E+06
  11761      1     68    103       38.40          0.1815E+06
  11762      1     68    104       38.40          0.1815E+06
  11763      1     68    105       38.40          0.1815E+06
  11764      1     68    106       38.30          0.1815E+06
  11765      1     68    107       38.30          0.1815E+06
  11766      1     68    108       38.20          0.1815E+06
  11767      1     68    109       38.10          0.1815E+06
  11768      1     68    110       38.00          0.1815E+06
  11769      1     68    111       38.00          0.1815E+06
  11770      1     68    112       38.00          0.1815E+06
  11771      1     68    113       38.20          0.1815E+06
  11772      1     68    114       38.70          0.1815E+06
  11773      1     68    115       38.50          0.1815E+06
  11774      1     68    116       38.00          0.1815E+06
  11775      1     68    117       37.20          0.1815E+06
  11776      1     68    118       35.00          0.1815E+06
  11777      1     68    119       33.20          0.1815E+06
  11778      1     68    120       33.20          0.1815E+06
  11779      1     68    121       32.60          0.1815E+06
  11780      1     68    122       31.80          0.1815E+06
  11781      1     68    123       31.20          0.1815E+06
  11782      1     68    124       30.00          0.1815E+06
  11783      1     68    125       29.40          0.1815E+06
  11784      1     68    126       29.70          0.1815E+06
  11785      1     68    127       30.50          0.1815E+06
  11786      1     68    128       31.90          0.1815E+06
  11787      1     68    129       32.60          0.1815E+06
  11788      1     68    130       32.70          0.1815E+06
  11789      1     68    131       33.30          0.1815E+06
  11790      1     68    132       33.70          0.1815E+06
  11791      1     68    133       33.60          0.1815E+06
  11792      1     68    134       32.80          0.1815E+06
  11793      1     68    135       30.00          0.1815E+06
  11794      1     68    136       29.70          0.1815E+06
  11795      1     68    137       32.40          0.1815E+06
  11796      1     68    138       33.60          0.1815E+06
  11797      1     68    139       33.20          0.1815E+06
  11798      1     68    140       32.10          0.1815E+06
  11799      1     68    141       31.80          0.1815E+06
  11800      1     68    142       31.60          0.1815E+06
  11801      1     68    143       31.00          0.1815E+06
  11802      1     68    144       32.20          0.1815E+06
  11803      1     68    145       34.10          0.1815E+06
  11804      1     68    146       33.80          0.1815E+06
  11805      1     68    147       33.10          0.1815E+06
  11806      1     68    148       32.90          0.1815E+06
  11807      1     68    149       32.40          0.1815E+06
  11808      1     68    150       31.80          0.1815E+06
  11809      1     68    151       31.50          0.1815E+06
  11810      1     68    152       32.10          0.1815E+06
  11811      1     68    153       33.70          0.1815E+06
  11812      1     68    154       33.60          0.1815E+06
  11813      1     68    155       32.70          0.1815E+06
  11814      1     68    156       32.50          0.1815E+06
  11815      1     68    157       31.70          0.1815E+06
  11816      1     68    158       30.20          0.1815E+06
  11817      1     68    159       29.80          0.1815E+06
  11818      1     68    160       31.20          0.1815E+06
  11819      1     68    161       32.60          0.1815E+06
  11820      1     68    162       32.70          0.1815E+06
  11821      1     68    163       30.70          0.1815E+06
  11822      1     68    164       29.30          0.1815E+06
  11823      1     68    165       29.90          0.1815E+06
  11824      1     68    166       32.70          0.1815E+06
  11825      1     68    167       36.00          0.1815E+06
  11826      1     68    168       38.30          0.1815E+06
  11827      1     68    169       38.90          0.1815E+06
  11828      1     68    170       38.40          0.1815E+06
  11829      1     68    171       38.70          0.1815E+06
  11830      1     68    172       40.10          0.1815E+06
  11831      1     68    173       41.60          0.1815E+06
  11832      1     68    174       42.40          0.1815E+06
  11833      1     69      1      -10.41          0.1815E+06
  11834      1     69      2      -9.910          0.1815E+06
  11835      1     69      3      -9.910          0.1815E+06
  11836      1     69      4      -9.710          0.1815E+06
  11837      1     69      5      -9.710          0.1815E+06
  11838      1     69      6      -8.510          0.1815E+06
  11839      1     69      7      -6.810          0.1815E+06
  11840      1     69      8      -6.210          0.1815E+06
  11841      1     69      9      -6.210          0.1815E+06
  11842      1     69     10      -6.910          0.1815E+06
  11843      1     69     11      -6.210          0.1815E+06
  11844      1     69     12      -6.010          0.1815E+06
  11845      1     69     13      -4.810          0.1815E+06
  11846      1     69     14      -4.510          0.1815E+06
  11847      1     69     15      -4.510          0.1815E+06
  11848      1     69     16      -5.310          0.1815E+06
  11849      1     69     17      -4.510          0.1815E+06
  11850      1     69     18      -3.320          0.1815E+06
  11851      1     69     19      -3.020          0.1815E+06
  11852      1     69     20      -3.220          0.1815E+06
  11853      1     69     21      -3.220          0.1815E+06
  11854      1     69     22      -2.820          0.1815E+06
  11855      1     69     23      -1.100          0.1815E+06
  11856      1     69     24      0.4300          0.1815E+06
  11857      1     69     25       1.430          0.1815E+06
  11858      1     69     26       1.430          0.1815E+06
  11859      1     69     27       5.450          0.1815E+06
  11860      1     69     28       7.450          0.1815E+06
  11861      1     69     29       10.01          0.1815E+06
  11862      1     69     30       10.15          0.1815E+06
  11863      1     69     31       9.030          0.1815E+06
  11864      1     69     32       9.680          0.1815E+06
  11865      1     69     33       8.010          0.1815E+06
  11866      1     69     34       8.940          0.1815E+06
  11867      1     69     35       8.810          0.1815E+06
  11868      1     69     36       8.170          0.1815E+06
  11869      1     69     37       8.650          0.1815E+06
  11870      1     69     38       12.03          0.1815E+06
  11871      1     69     39       9.440          0.1815E+06
  11872      1     69     40       10.01          0.1815E+06
  11873      1     69     41       9.170          0.1815E+06
  11874      1     69     42       11.35          0.1815E+06
  11875      1     69     43       9.320          0.1815E+06
  11876      1     69     44       10.19          0.1815E+06
  11877      1     69     45       9.510          0.1815E+06
  11878      1     69     46       8.710          0.1815E+06
  11879      1     69     47       13.22          0.1815E+06
  11880      1     69     48       8.720          0.1815E+06
  11881      1     69     49       7.960          0.1815E+06
  11882      1     69     50       7.400          0.1815E+06
  11883      1     69     51       7.260          0.1815E+06
  11884      1     69     52       7.360          0.1815E+06
  11885      1     69     53       8.780          0.1815E+06
  11886      1     69     54       11.18          0.1815E+06
  11887      1     69     55       11.57          0.1815E+06
  11888      1     69     56       10.31          0.1815E+06
  11889      1     69     57       9.170          0.1815E+06
  11890      1     69     58       9.970          0.1815E+06
  11891      1     69     59       11.17          0.1815E+06
  11892      1     69     60       12.28          0.1815E+06
  11893      1     69     61       13.61          0.1815E+06
  11894      1     69     62       14.69          0.1815E+06
  11895      1     69     63       14.56          0.1815E+06
  11896      1     69     64       15.42          0.1815E+06
  11897      1     69     65       17.29          0.1815E+06
  11898      1     69     66       18.23          0.1815E+06
  11899      1     69     67       21.79          0.1815E+06
  11900      1     69     68       23.27          0.1815E+06
  11901      1     69     69       27.23          0.1815E+06
  11902      1     69     70       29.79          0.1815E+06
  11903      1     69     71       31.87          0.1815E+06
  11904      1     69     72       32.04          0.1815E+06
  11905      1     69     73       34.18          0.1815E+06
  11906      1     69     74       35.13          0.1815E+06
  11907      1     69     75       35.15          0.1815E+06
  11908      1     69     76       36.04          0.1815E+06
  11909      1     69     77       36.47          0.1815E+06
  11910      1     69     78       36.75          0.1815E+06
  11911      1     69     79       35.77          0.1815E+06
  11912      1     69     80       35.00          0.1815E+06
  11913      1     69     81       36.40          0.1815E+06
  11914      1     69     82       36.50          0.1815E+06
  11915      1     69     83       36.30          0.1815E+06
  11916      1     69     84       36.00          0.1815E+06
  11917      1     69     85       36.00          0.1815E+06
  11918      1     69     86       36.20          0.1815E+06
  11919      1     69     87       36.10          0.1815E+06
  11920      1     69     88       35.30          0.1815E+06
  11921      1     69     89       34.60          0.1815E+06
  11922      1     69     90       35.20          0.1815E+06
  11923      1     69     91       35.60          0.1815E+06
  11924      1     69     92       36.30          0.1815E+06
  11925      1     69     93       36.80          0.1815E+06
  11926      1     69     94       37.60          0.1815E+06
  11927      1     69     95       38.30          0.1815E+06
  11928      1     69     96       38.10          0.1815E+06
  11929      1     69     97       38.00          0.1815E+06
  11930      1     69     98       38.10          0.1815E+06
  11931      1     69     99       38.30          0.1815E+06
  11932      1     69    100       38.30          0.1815E+06
  11933      1     69    101       38.40          0.1815E+06
  11934      1     69    102       38.50          0.1815E+06
  11935      1     69    103       38.70          0.1815E+06
  11936      1     69    104       38.70          0.1815E+06
  11937      1     69    105       38.60          0.1815E+06
  11938      1     69    106       38.40          0.1815E+06
  11939      1     69    107       38.30          0.1815E+06
  11940      1     69    108       38.30          0.1815E+06
  11941      1     69    109       38.30          0.1815E+06
  11942      1     69    110       38.30          0.1815E+06
  11943      1     69    111       38.30          0.1815E+06
  11944      1     69    112       38.40          0.1815E+06
  11945      1     69    113       38.70          0.1815E+06
  11946      1     69    114       38.80          0.1815E+06
  11947      1     69    115       38.20          0.1815E+06
  11948      1     69    116       37.60          0.1815E+06
  11949      1     69    117       36.60          0.1815E+06
  11950      1     69    118       33.00          0.1815E+06
  11951      1     69    119       30.40          0.1815E+06
  11952      1     69    120       30.50          0.1815E+06
  11953      1     69    121       31.60          0.1815E+06
  11954      1     69    122       31.80          0.1815E+06
  11955      1     69    123       31.50          0.1815E+06
  11956      1     69    124       30.90          0.1815E+06
  11957      1     69    125       30.10          0.1815E+06
  11958      1     69    126       30.90          0.1815E+06
  11959      1     69    127       32.70          0.1815E+06
  11960      1     69    128       34.50          0.1815E+06
  11961      1     69    129       35.00          0.1815E+06
  11962      1     69    130       34.90          0.1815E+06
  11963      1     69    131       35.60          0.1815E+06
  11964      1     69    132       35.80          0.1815E+06
  11965      1     69    133       35.20          0.1815E+06
  11966      1     69    134       34.30          0.1815E+06
  11967      1     69    135       33.70          0.1815E+06
  11968      1     69    136       33.10          0.1815E+06
  11969      1     69    137       36.20          0.1815E+06
  11970      1     69    138       37.50          0.1815E+06
  11971      1     69    139       37.10          0.1815E+06
  11972      1     69    140       36.90          0.1815E+06
  11973      1     69    141       36.30          0.1815E+06
  11974      1     69    142       36.40          0.1815E+06
  11975      1     69    143       35.90          0.1815E+06
  11976      1     69    144       36.40          0.1815E+06
  11977      1     69    145       36.60          0.1815E+06
  11978      1     69    146       35.50          0.1815E+06
  11979      1     69    147       35.10          0.1815E+06
  11980      1     69    148       36.50          0.1815E+06
  11981      1     69    149       36.40          0.1815E+06
  11982      1     69    150       34.90          0.1815E+06
  11983      1     69    151       34.10          0.1815E+06
  11984      1     69    152       34.10          0.1815E+06
  11985      1     69    153       35.70          0.1815E+06
  11986      1     69    154       35.70          0.1815E+06
  11987      1     69    155       34.60          0.1815E+06
  11988      1     69    156       34.10          0.1815E+06
  11989      1     69    157       33.10          0.1815E+06
  11990      1     69    158       31.60          0.1815E+06
  11991      1     69    159       31.40          0.1815E+06
  11992      1     69    160       32.90          0.1815E+06
  11993      1     69    161       33.60          0.1815E+06
  11994      1     69    162       33.60          0.1815E+06
  11995      1     69    163       32.60          0.1815E+06
  11996      1     69    164       31.00          0.1815E+06
  11997      1     69    165       30.00          0.1815E+06
  11998      1     69    166       31.20          0.1815E+06
  11999      1     69    167       33.00          0.1815E+06
  12000      1     69    168       34.40          0.1815E+06
  12001      1     69    169       35.80          0.1815E+06
  12002      1     69    170       36.60          0.1815E+06
  12003      1     69    171       37.40          0.1815E+06
  12004      1     69    172       38.30          0.1815E+06
  12005      1     69    173       39.50          0.1815E+06
  12006      1     69    174       40.20          0.1815E+06
  12007      1     70      1      -9.610          0.1815E+06
  12008      1     70      2      -10.21          0.1815E+06
  12009      1     70      3      -10.21          0.1815E+06
  12010      1     70      4      -9.610          0.1815E+06
  12011      1     70      5      -8.620          0.1815E+06
  12012      1     70      6      -8.310          0.1815E+06
  12013      1     70      7      -6.440          0.1815E+06
  12014      1     70      8      -6.140          0.1815E+06
  12015      1     70      9      -6.140          0.1815E+06
  12016      1     70     10      -6.150          0.1815E+06
  12017      1     70     11      -5.450          0.1815E+06
  12018      1     70     12      -5.490          0.1815E+06
  12019      1     70     13      -4.940          0.1815E+06
  12020      1     70     14      -4.820          0.1815E+06
  12021      1     70     15      -4.820          0.1815E+06
  12022      1     70     16      -5.000          0.1815E+06
  12023      1     70     17      -4.350          0.1815E+06
  12024      1     70     18      -3.590          0.1815E+06
  12025      1     70     19      -3.210          0.1815E+06
  12026      1     70     20      -3.220          0.1815E+06
  12027      1     70     21      -3.220          0.1815E+06
  12028      1     70     22      -2.820          0.1815E+06
  12029      1     70     23      -1.100          0.1815E+06
  12030      1     70     24      0.4300          0.1815E+06
  12031      1     70     25      0.4400          0.1815E+06
  12032      1     70     26      0.4400          0.1815E+06
  12033      1     70     27       4.940          0.1815E+06
  12034      1     70     28       6.450          0.1815E+06
  12035      1     70     29       9.470          0.1815E+06
  12036      1     70     30       9.690          0.1815E+06
  12037      1     70     31       11.88          0.1815E+06
  12038      1     70     32       8.640          0.1815E+06
  12039      1     70     33       9.590          0.1815E+06
  12040      1     70     34       8.310          0.1815E+06
  12041      1     70     35       10.23          0.1815E+06
  12042      1     70     36       7.670          0.1815E+06
  12043      1     70     37       8.590          0.1815E+06
  12044      1     70     38       8.820          0.1815E+06
  12045      1     70     39       9.210          0.1815E+06
  12046      1     70     40       11.97          0.1815E+06
  12047      1     70     41       8.810          0.1815E+06
  12048      1     70     42       11.57          0.1815E+06
  12049      1     70     43       13.31          0.1815E+06
  12050      1     70     44       10.50          0.1815E+06
  12051      1     70     45       9.500          0.1815E+06
  12052      1     70     46       9.670          0.1815E+06
  12053      1     70     47       8.440          0.1815E+06
  12054      1     70     48       8.210          0.1815E+06
  12055      1     70     49       7.550          0.1815E+06
  12056      1     70     50       8.340          0.1815E+06
  12057      1     70     51       6.920          0.1815E+06
  12058      1     70     52       7.090          0.1815E+06
  12059      1     70     53       7.630          0.1815E+06
  12060      1     70     54       8.070          0.1815E+06
  12061      1     70     55       8.110          0.1815E+06
  12062      1     70     56       8.730          0.1815E+06
  12063      1     70     57       11.31          0.1815E+06
  12064      1     70     58       11.53          0.1815E+06
  12065      1     70     59       10.81          0.1815E+06
  12066      1     70     60       11.28          0.1815E+06
  12067      1     70     61       11.39          0.1815E+06
  12068      1     70     62       11.86          0.1815E+06
  12069      1     70     63       14.05          0.1815E+06
  12070      1     70     64       16.06          0.1815E+06
  12071      1     70     65       16.70          0.1815E+06
  12072      1     70     66       18.00          0.1815E+06
  12073      1     70     67       19.86          0.1815E+06
  12074      1     70     68       22.79          0.1815E+06
  12075      1     70     69       29.07          0.1815E+06
  12076      1     70     70       33.02          0.1815E+06
  12077      1     70     71       34.04          0.1815E+06
  12078      1     70     72       34.25          0.1815E+06
  12079      1     70     73       33.95          0.1815E+06
  12080      1     70     74       34.61          0.1815E+06
  12081      1     70     75       35.29          0.1815E+06
  12082      1     70     76       35.41          0.1815E+06
  12083      1     70     77       36.06          0.1815E+06
  12084      1     70     78       36.25          0.1815E+06
  12085      1     70     79       36.08          0.1815E+06
  12086      1     70     80       34.33          0.1815E+06
  12087      1     70     81       35.60          0.1815E+06
  12088      1     70     82       35.80          0.1815E+06
  12089      1     70     83       35.90          0.1815E+06
  12090      1     70     84       35.70          0.1815E+06
  12091      1     70     85       35.50          0.1815E+06
  12092      1     70     86       35.50          0.1815E+06
  12093      1     70     87       35.30          0.1815E+06
  12094      1     70     88       33.90          0.1815E+06
  12095      1     70     89       34.00          0.1815E+06
  12096      1     70     90       36.30          0.1815E+06
  12097      1     70     91       36.50          0.1815E+06
  12098      1     70     92       36.50          0.1815E+06
  12099      1     70     93       36.50          0.1815E+06
  12100      1     70     94       36.90          0.1815E+06
  12101      1     70     95       38.20          0.1815E+06
  12102      1     70     96       38.40          0.1815E+06
  12103      1     70     97       38.00          0.1815E+06
  12104      1     70     98       38.10          0.1815E+06
  12105      1     70     99       38.30          0.1815E+06
  12106      1     70    100       38.40          0.1815E+06
  12107      1     70    101       38.50          0.1815E+06
  12108      1     70    102       38.70          0.1815E+06
  12109      1     70    103       38.80          0.1815E+06
  12110      1     70    104       38.90          0.1815E+06
  12111      1     70    105       38.70          0.1815E+06
  12112      1     70    106       38.40          0.1815E+06
  12113      1     70    107       38.10          0.1815E+06
  12114      1     70    108       38.20          0.1815E+06
  12115      1     70    109       38.30          0.1815E+06
  12116      1     70    110       38.30          0.1815E+06
  12117      1     70    111       38.20          0.1815E+06
  12118      1     70    112       37.90          0.1815E+06
  12119      1     70    113       37.60          0.1815E+06
  12120      1     70    114       37.00          0.1815E+06
  12121      1     70    115       36.20          0.1815E+06
  12122      1     70    116       35.90          0.1815E+06
  12123      1     70    117       33.00          0.1815E+06
  12124      1     70    118       29.60          0.1815E+06
  12125      1     70    119       29.10          0.1815E+06
  12126      1     70    120       29.90          0.1815E+06
  12127      1     70    121       30.80          0.1815E+06
  12128      1     70    122       31.70          0.1815E+06
  12129      1     70    123       31.90          0.1815E+06
  12130      1     70    124       31.70          0.1815E+06
  12131      1     70    125       31.60          0.1815E+06
  12132      1     70    126       32.50          0.1815E+06
  12133      1     70    127       34.40          0.1815E+06
  12134      1     70    128       36.10          0.1815E+06
  12135      1     70    129       36.40          0.1815E+06
  12136      1     70    130       36.70          0.1815E+06
  12137      1     70    131       37.00          0.1815E+06
  12138      1     70    132       37.00          0.1815E+06
  12139      1     70    133       36.60          0.1815E+06
  12140      1     70    134       36.90          0.1815E+06
  12141      1     70    135       37.10          0.1815E+06
  12142      1     70    136       36.50          0.1815E+06
  12143      1     70    137       38.60          0.1815E+06
  12144      1     70    138       39.90          0.1815E+06
  12145      1     70    139       39.80          0.1815E+06
  12146      1     70    140       39.70          0.1815E+06
  12147      1     70    141       39.50          0.1815E+06
  12148      1     70    142       38.80          0.1815E+06
  12149      1     70    143       38.90          0.1815E+06
  12150      1     70    144       39.00          0.1815E+06
  12151      1     70    145       38.90          0.1815E+06
  12152      1     70    146       38.10          0.1815E+06
  12153      1     70    147       38.00          0.1815E+06
  12154      1     70    148       38.90          0.1815E+06
  12155      1     70    149       38.30          0.1815E+06
  12156      1     70    150       37.10          0.1815E+06
  12157      1     70    151       36.20          0.1815E+06
  12158      1     70    152       36.20          0.1815E+06
  12159      1     70    153       37.10          0.1815E+06
  12160      1     70    154       37.30          0.1815E+06
  12161      1     70    155       36.60          0.1815E+06
  12162      1     70    156       35.90          0.1815E+06
  12163      1     70    157       34.00          0.1815E+06
  12164      1     70    158       32.60          0.1815E+06
  12165      1     70    159       32.90          0.1815E+06
  12166      1     70    160       34.70          0.1815E+06
  12167      1     70    161       35.70          0.1815E+06
  12168      1     70    162       35.00          0.1815E+06
  12169      1     70    163       35.20          0.1815E+06
  12170      1     70    164       33.80          0.1815E+06
  12171      1     70    165       31.80          0.1815E+06
  12172      1     70    166       31.50          0.1815E+06
  12173      1     70    167       32.10          0.1815E+06
  12174      1     70    168       33.00          0.1815E+06
  12175      1     70    169       33.80          0.1815E+06
  12176      1     70    170       34.60          0.1815E+06
  12177      1     70    171       36.00          0.1815E+06
  12178      1     70    172       36.60          0.1815E+06
  12179      1     70    173       37.10          0.1815E+06
  12180      1     70    174       37.50          0.1815E+06
  12181      1     71      1      -10.92          0.1815E+06
  12182      1     71      2      -10.52          0.1815E+06
  12183      1     71      3      -10.52          0.1815E+06
  12184      1     71      4      -10.32          0.1815E+06
  12185      1     71      5      -10.12          0.1815E+06
  12186      1     71      6      -7.820          0.1815E+06
  12187      1     71      7      -6.420          0.1815E+06
  12188      1     71      8      -6.220          0.1815E+06
  12189      1     71      9      -6.220          0.1815E+06
  12190      1     71     10      -5.820          0.1815E+06
  12191      1     71     11      -5.170          0.1815E+06
  12192      1     71     12      -4.980          0.1815E+06
  12193      1     71     13      -5.030          0.1815E+06
  12194      1     71     14      -5.170          0.1815E+06
  12195      1     71     15      -5.170          0.1815E+06
  12196      1     71     16      -5.000          0.1815E+06
  12197      1     71     17      -4.350          0.1815E+06
  12198      1     71     18      -3.590          0.1815E+06
  12199      1     71     19      -3.210          0.1815E+06
  12200      1     71     20      -3.230          0.1815E+06
  12201      1     71     21      -3.230          0.1815E+06
  12202      1     71     22      -3.150          0.1815E+06
  12203      1     71     23      -2.320          0.1815E+06
  12204      1     71     24      0.4300          0.1815E+06
  12205      1     71     25      0.4400          0.1815E+06
  12206      1     71     26      0.4400          0.1815E+06
  12207      1     71     27       3.940          0.1815E+06
  12208      1     71     28       5.450          0.1815E+06
  12209      1     71     29       7.450          0.1815E+06
  12210      1     71     30       9.900          0.1815E+06
  12211      1     71     31       10.47          0.1815E+06
  12212      1     71     32       9.650          0.1815E+06
  12213      1     71     33       8.530          0.1815E+06
  12214      1     71     34       11.03          0.1815E+06
  12215      1     71     35       7.880          0.1815E+06
  12216      1     71     36       6.190          0.1815E+06
  12217      1     71     37       7.630          0.1815E+06
  12218      1     71     38       10.46          0.1815E+06
  12219      1     71     39       12.26          0.1815E+06
  12220      1     71     40       9.070          0.1815E+06
  12221      1     71     41       10.06          0.1815E+06
  12222      1     71     42       10.27          0.1815E+06
  12223      1     71     43       8.860          0.1815E+06
  12224      1     71     44       8.530          0.1815E+06
  12225      1     71     45       8.470          0.1815E+06
  12226      1     71     46       8.600          0.1815E+06
  12227      1     71     47       8.070          0.1815E+06
  12228      1     71     48       7.760          0.1815E+06
  12229      1     71     49       7.670          0.1815E+06
  12230      1     71     50       7.280          0.1815E+06
  12231      1     71     51       6.610          0.1815E+06
  12232      1     71     52       6.710          0.1815E+06
  12233      1     71     53       7.230          0.1815E+06
  12234      1     71     54       7.480          0.1815E+06
  12235      1     71     55       11.60          0.1815E+06
  12236      1     71     56       12.89          0.1815E+06
  12237      1     71     57       12.92          0.1815E+06
  12238      1     71     58       12.76          0.1815E+06
  12239      1     71     59       12.51          0.1815E+06
  12240      1     71     60       12.64          0.1815E+06
  12241      1     71     61       12.56          0.1815E+06
  12242      1     71     62       12.72          0.1815E+06
  12243      1     71     63       12.18          0.1815E+06
  12244      1     71     64       13.63          0.1815E+06
  12245      1     71     65       15.68          0.1815E+06
  12246      1     71     66       17.54          0.1815E+06
  12247      1     71     67       19.81          0.1815E+06
  12248      1     71     68       22.79          0.1815E+06
  12249      1     71     69       26.76          0.1815E+06
  12250      1     71     70       30.87          0.1815E+06
  12251      1     71     71       32.72          0.1815E+06
  12252      1     71     72       33.61          0.1815E+06
  12253      1     71     73       32.81          0.1815E+06
  12254      1     71     74       33.93          0.1815E+06
  12255      1     71     75       34.18          0.1815E+06
  12256      1     71     76       34.59          0.1815E+06
  12257      1     71     77       34.54          0.1815E+06
  12258      1     71     78       35.13          0.1815E+06
  12259      1     71     79       34.99          0.1815E+06
  12260      1     71     80       35.06          0.1815E+06
  12261      1     71     81       34.10          0.1815E+06
  12262      1     71     82       34.30          0.1815E+06
  12263      1     71     83       34.30          0.1815E+06
  12264      1     71     84       35.00          0.1815E+06
  12265      1     71     85       35.00          0.1815E+06
  12266      1     71     86       34.50          0.1815E+06
  12267      1     71     87       33.70          0.1815E+06
  12268      1     71     88       32.90          0.1815E+06
  12269      1     71     89       33.50          0.1815E+06
  12270      1     71     90       36.50          0.1815E+06
  12271      1     71     91       36.80          0.1815E+06
  12272      1     71     92       36.40          0.1815E+06
  12273      1     71     93       36.30          0.1815E+06
  12274      1     71     94       36.70          0.1815E+06
  12275      1     71     95       37.30          0.1815E+06
  12276      1     71     96       38.30          0.1815E+06
  12277      1     71     97       38.10          0.1815E+06
  12278      1     71     98       38.00          0.1815E+06
  12279      1     71     99       38.10          0.1815E+06
  12280      1     71    100       38.20          0.1815E+06
  12281      1     71    101       38.30          0.1815E+06
  12282      1     71    102       38.40          0.1815E+06
  12283      1     71    103       38.60          0.1815E+06
  12284      1     71    104       38.60          0.1815E+06
  12285      1     71    105       38.50          0.1815E+06
  12286      1     71    106       38.30          0.1815E+06
  12287      1     71    107       37.80          0.1815E+06
  12288      1     71    108       37.10          0.1815E+06
  12289      1     71    109       37.00          0.1815E+06
  12290      1     71    110       36.60          0.1815E+06
  12291      1     71    111       36.40          0.1815E+06
  12292      1     71    112       36.00          0.1815E+06
  12293      1     71    113       34.70          0.1815E+06
  12294      1     71    114       33.70          0.1815E+06
  12295      1     71    115       32.60          0.1815E+06
  12296      1     71    116       30.80          0.1815E+06
  12297      1     71    117       28.80          0.1815E+06
  12298      1     71    118       28.70          0.1815E+06
  12299      1     71    119       29.40          0.1815E+06
  12300      1     71    120       30.20          0.1815E+06
  12301      1     71    121       31.10          0.1815E+06
  12302      1     71    122       31.90          0.1815E+06
  12303      1     71    123       32.40          0.1815E+06
  12304      1     71    124       32.80          0.1815E+06
  12305      1     71    125       33.20          0.1815E+06
  12306      1     71    126       33.60          0.1815E+06
  12307      1     71    127       34.90          0.1815E+06
  12308      1     71    128       36.60          0.1815E+06
  12309      1     71    129       37.40          0.1815E+06
  12310      1     71    130       37.60          0.1815E+06
  12311      1     71    131       38.00          0.1815E+06
  12312      1     71    132       38.10          0.1815E+06
  12313      1     71    133       38.10          0.1815E+06
  12314      1     71    134       38.80          0.1815E+06
  12315      1     71    135       39.70          0.1815E+06
  12316      1     71    136       40.10          0.1815E+06
  12317      1     71    137       41.60          0.1815E+06
  12318      1     71    138       43.20          0.1815E+06
  12319      1     71    139       43.70          0.1815E+06
  12320      1     71    140       43.40          0.1815E+06
  12321      1     71    141       42.70          0.1815E+06
  12322      1     71    142       41.30          0.1815E+06
  12323      1     71    143       40.60          0.1815E+06
  12324      1     71    144       41.30          0.1815E+06
  12325      1     71    145       41.40          0.1815E+06
  12326      1     71    146       40.90          0.1815E+06
  12327      1     71    147       40.70          0.1815E+06
  12328      1     71    148       41.30          0.1815E+06
  12329      1     71    149       40.20          0.1815E+06
  12330      1     71    150       38.40          0.1815E+06
  12331      1     71    151       38.10          0.1815E+06
  12332      1     71    152       38.60          0.1815E+06
  12333      1     71    153       39.00          0.1815E+06
  12334      1     71    154       38.70          0.1815E+06
  12335      1     71    155       37.90          0.1815E+06
  12336      1     71    156       37.00          0.1815E+06
  12337      1     71    157       35.20          0.1815E+06
  12338      1     71    158       33.60          0.1815E+06
  12339      1     71    159       34.00          0.1815E+06
  12340      1     71    160       35.40          0.1815E+06
  12341      1     71    161       36.70          0.1815E+06
  12342      1     71    162       36.70          0.1815E+06
  12343      1     71    163       36.50          0.1815E+06
  12344      1     71    164       36.10          0.1815E+06
  12345      1     71    165       34.10          0.1815E+06
  12346      1     71    166       32.60          0.1815E+06
  12347      1     71    167       32.50          0.1815E+06
  12348      1     71    168       33.30          0.1815E+06
  12349      1     71    169       33.80          0.1815E+06
  12350      1     71    170       34.10          0.1815E+06
  12351      1     71    171       34.80          0.1815E+06
  12352      1     71    172       34.90          0.1815E+06
  12353      1     71    173       35.10          0.1815E+06
  12354      1     71    174       35.20          0.1815E+06
  12355      1     72      1      -10.92          0.1815E+06
  12356      1     72      2      -10.52          0.1815E+06
  12357      1     72      3      -10.52          0.1815E+06
  12358      1     72      4      -10.32          0.1815E+06
  12359      1     72      5      -10.12          0.1815E+06
  12360      1     72      6      -7.820          0.1815E+06
  12361      1     72      7      -6.420          0.1815E+06
  12362      1     72      8      -6.220          0.1815E+06
  12363      1     72      9      -6.220          0.1815E+06
  12364      1     72     10      -5.820          0.1815E+06
  12365      1     72     11      -5.170          0.1815E+06
  12366      1     72     12      -4.980          0.1815E+06
  12367      1     72     13      -5.030          0.1815E+06
  12368      1     72     14      -5.170          0.1815E+06
  12369      1     72     15      -5.170          0.1815E+06
  12370      1     72     16      -5.000          0.1815E+06
  12371      1     72     17      -4.350          0.1815E+06
  12372      1     72     18      -3.590          0.1815E+06
  12373      1     72     19      -3.210          0.1815E+06
  12374      1     72     20      -3.230          0.1815E+06
  12375      1     72     21      -3.230          0.1815E+06
  12376      1     72     22      -3.150          0.1815E+06
  12377      1     72     23      -2.320          0.1815E+06
  12378      1     72     24      0.4300          0.1815E+06
  12379      1     72     25      0.4400          0.1815E+06
  12380      1     72     26      0.4400          0.1815E+06
  12381      1     72     27       3.940          0.1815E+06
  12382      1     72     28       5.450          0.1815E+06
  12383      1     72     29       7.450          0.1815E+06
  12384      1     72     30       9.280          0.1815E+06
  12385      1     72     31       8.720          0.1815E+06
  12386      1     72     32       10.64          0.1815E+06
  12387      1     72     33       7.510          0.1815E+06
  12388      1     72     34       7.570          0.1815E+06
  12389      1     72     35       8.470          0.1815E+06
  12390      1     72     36       8.500          0.1815E+06
  12391      1     72     37       7.900          0.1815E+06
  12392      1     72     38       9.460          0.1815E+06
  12393      1     72     39       8.390          0.1815E+06
  12394      1     72     40       10.06          0.1815E+06
  12395      1     72     41       9.720          0.1815E+06
  12396      1     72     42       11.97          0.1815E+06
  12397      1     72     43       10.17          0.1815E+06
  12398      1     72     44       8.800          0.1815E+06
  12399      1     72     45       7.980          0.1815E+06
  12400      1     72     46       7.960          0.1815E+06
  12401      1     72     47       7.780          0.1815E+06
  12402      1     72     48       7.820          0.1815E+06
  12403      1     72     49       7.110          0.1815E+06
  12404      1     72     50       7.000          0.1815E+06
  12405      1     72     51       6.480          0.1815E+06
  12406      1     72     52       6.380          0.1815E+06
  12407      1     72     53       7.670          0.1815E+06
  12408      1     72     54       11.57          0.1815E+06
  12409      1     72     55       13.63          0.1815E+06
  12410      1     72     56       14.26          0.1815E+06
  12411      1     72     57       14.06          0.1815E+06
  12412      1     72     58       13.73          0.1815E+06
  12413      1     72     59       13.68          0.1815E+06
  12414      1     72     60       13.63          0.1815E+06
  12415      1     72     61       13.39          0.1815E+06
  12416      1     72     62       14.22          0.1815E+06
  12417      1     72     63       13.85          0.1815E+06
  12418      1     72     64       13.85          0.1815E+06
  12419      1     72     65       14.72          0.1815E+06
  12420      1     72     66       15.89          0.1815E+06
  12421      1     72     67       18.20          0.1815E+06
  12422      1     72     68       20.59          0.1815E+06
  12423      1     72     69       24.32          0.1815E+06
  12424      1     72     70       27.72          0.1815E+06
  12425      1     72     71       30.63          0.1815E+06
  12426      1     72     72       30.71          0.1815E+06
  12427      1     72     73       30.37          0.1815E+06
  12428      1     72     74       32.09          0.1815E+06
  12429      1     72     75       30.98          0.1815E+06
  12430      1     72     76       31.43          0.1815E+06
  12431      1     72     77       33.16          0.1815E+06
  12432      1     72     78       34.45          0.1815E+06
  12433      1     72     79       35.11          0.1815E+06
  12434      1     72     80       34.99          0.1815E+06
  12435      1     72     81       34.34          0.1815E+06
  12436      1     72     82       33.60          0.1815E+06
  12437      1     72     83       33.60          0.1815E+06
  12438      1     72     84       33.90          0.1815E+06
  12439      1     72     85       34.10          0.1815E+06
  12440      1     72     86       33.50          0.1815E+06
  12441      1     72     87       32.70          0.1815E+06
  12442      1     72     88       32.30          0.1815E+06
  12443      1     72     89       33.50          0.1815E+06
  12444      1     72     90       35.60          0.1815E+06
  12445      1     72     91       35.80          0.1815E+06
  12446      1     72     92       35.60          0.1815E+06
  12447      1     72     93       36.00          0.1815E+06
  12448      1     72     94       36.50          0.1815E+06
  12449      1     72     95       36.90          0.1815E+06
  12450      1     72     96       37.70          0.1815E+06
  12451      1     72     97       38.20          0.1815E+06
  12452      1     72     98       38.10          0.1815E+06
  12453      1     72     99       38.00          0.1815E+06
  12454      1     72    100       38.00          0.1815E+06
  12455      1     72    101       38.10          0.1815E+06
  12456      1     72    102       38.20          0.1815E+06
  12457      1     72    103       38.40          0.1815E+06
  12458      1     72    104       38.50          0.1815E+06
  12459      1     72    105       38.30          0.1815E+06
  12460      1     72    106       38.00          0.1815E+06
  12461      1     72    107       37.50          0.1815E+06
  12462      1     72    108       36.70          0.1815E+06
  12463      1     72    109       35.80          0.1815E+06
  12464      1     72    110       35.10          0.1815E+06
  12465      1     72    111       34.70          0.1815E+06
  12466      1     72    112       34.20          0.1815E+06
  12467      1     72    113       32.20          0.1815E+06
  12468      1     72    114       31.00          0.1815E+06
  12469      1     72    115       29.30          0.1815E+06
  12470      1     72    116       28.50          0.1815E+06
  12471      1     72    117       28.70          0.1815E+06
  12472      1     72    118       29.20          0.1815E+06
  12473      1     72    119       29.60          0.1815E+06
  12474      1     72    120       30.40          0.1815E+06
  12475      1     72    121       31.70          0.1815E+06
  12476      1     72    122       32.70          0.1815E+06
  12477      1     72    123       33.20          0.1815E+06
  12478      1     72    124       33.80          0.1815E+06
  12479      1     72    125       34.70          0.1815E+06
  12480      1     72    126       35.20          0.1815E+06
  12481      1     72    127       35.00          0.1815E+06
  12482      1     72    128       36.50          0.1815E+06
  12483      1     72    129       37.80          0.1815E+06
  12484      1     72    130       38.40          0.1815E+06
  12485      1     72    131       38.60          0.1815E+06
  12486      1     72    132       39.00          0.1815E+06
  12487      1     72    133       39.80          0.1815E+06
  12488      1     72    134       40.50          0.1815E+06
  12489      1     72    135       41.50          0.1815E+06
  12490      1     72    136       42.40          0.1815E+06
  12491      1     72    137       43.90          0.1815E+06
  12492      1     72    138       46.20          0.1815E+06
  12493      1     72    139       47.00          0.1815E+06
  12494      1     72    140       47.10          0.1815E+06
  12495      1     72    141       46.50          0.1815E+06
  12496      1     72    142       44.50          0.1815E+06
  12497      1     72    143       43.70          0.1815E+06
  12498      1     72    144       43.90          0.1815E+06
  12499      1     72    145       43.70          0.1815E+06
  12500      1     72    146       43.60          0.1815E+06
  12501      1     72    147       43.80          0.1815E+06
  12502      1     72    148       43.70          0.1815E+06
  12503      1     72    149       41.80          0.1815E+06
  12504      1     72    150       40.40          0.1815E+06
  12505      1     72    151       40.30          0.1815E+06
  12506      1     72    152       40.70          0.1815E+06
  12507      1     72    153       40.80          0.1815E+06
  12508      1     72    154       40.10          0.1815E+06
  12509      1     72    155       39.00          0.1815E+06
  12510      1     72    156       38.10          0.1815E+06
  12511      1     72    157       37.00          0.1815E+06
  12512      1     72    158       35.60          0.1815E+06
  12513      1     72    159       35.90          0.1815E+06
  12514      1     72    160       36.50          0.1815E+06
  12515      1     72    161       37.60          0.1815E+06
  12516      1     72    162       37.90          0.1815E+06
  12517      1     72    163       37.50          0.1815E+06
  12518      1     72    164       37.00          0.1815E+06
  12519      1     72    165       35.50          0.1815E+06
  12520      1     72    166       33.70          0.1815E+06
  12521      1     72    167       33.50          0.1815E+06
  12522      1     72    168       34.20          0.1815E+06
  12523      1     72    169       34.50          0.1815E+06
  12524      1     72    170       34.50          0.1815E+06
  12525      1     72    171       34.30          0.1815E+06
  12526      1     72    172       34.30          0.1815E+06
  12527      1     72    173       34.50          0.1815E+06
  12528      1     72    174       34.70          0.1815E+06
  12529      1     73      1      -10.67          0.1815E+06
  12530      1     73      2      -10.92          0.1815E+06
  12531      1     73      3      -10.92          0.1815E+06
  12532      1     73      4      -10.52          0.1815E+06
  12533      1     73      5      -10.12          0.1815E+06
  12534      1     73      6      -8.720          0.1815E+06
  12535      1     73      7      -8.320          0.1815E+06
  12536      1     73      8      -6.770          0.1815E+06
  12537      1     73      9      -6.770          0.1815E+06
  12538      1     73     10      -5.820          0.1815E+06
  12539      1     73     11      -5.170          0.1815E+06
  12540      1     73     12      -4.980          0.1815E+06
  12541      1     73     13      -5.030          0.1815E+06
  12542      1     73     14      -5.170          0.1815E+06
  12543      1     73     15      -5.170          0.1815E+06
  12544      1     73     16      -4.760          0.1815E+06
  12545      1     73     17      -4.610          0.1815E+06
  12546      1     73     18      -4.100          0.1815E+06
  12547      1     73     19      -3.510          0.1815E+06
  12548      1     73     20      -2.770          0.1815E+06
  12549      1     73     21      -2.770          0.1815E+06
  12550      1     73     22      -2.730          0.1815E+06
  12551      1     73     23      -2.240          0.1815E+06
  12552      1     73     24     -0.9000          0.1815E+06
  12553      1     73     25       1.440          0.1815E+06
  12554      1     73     26       1.440          0.1815E+06
  12555      1     73     27       2.440          0.1815E+06
  12556      1     73     28       4.440          0.1815E+06
  12557      1     73     29       5.450          0.1815E+06
  12558      1     73     30       6.360          0.1815E+06
  12559      1     73     31       11.77          0.1815E+06
  12560      1     73     32       9.480          0.1815E+06
  12561      1     73     33       11.40          0.1815E+06
  12562      1     73     34       9.980          0.1815E+06
  12563      1     73     35       8.220          0.1815E+06
  12564      1     73     36       7.880          0.1815E+06
  12565      1     73     37       7.250          0.1815E+06
  12566      1     73     38       7.360          0.1815E+06
  12567      1     73     39       8.210          0.1815E+06
  12568      1     73     40       8.360          0.1815E+06
  12569      1     73     41       7.760          0.1815E+06
  12570      1     73     42       11.43          0.1815E+06
  12571      1     73     43       8.560          0.1815E+06
  12572      1     73     44       8.640          0.1815E+06
  12573      1     73     45       7.570          0.1815E+06
  12574      1     73     46       7.530          0.1815E+06
  12575      1     73     47       8.310          0.1815E+06
  12576      1     73     48       6.710          0.1815E+06
  12577      1     73     49       6.780          0.1815E+06
  12578      1     73     50       6.760          0.1815E+06
  12579      1     73     51       6.670          0.1815E+06
  12580      1     73     52       6.530          0.1815E+06
  12581      1     73     53       8.100          0.1815E+06
  12582      1     73     54       12.35          0.1815E+06
  12583      1     73     55       14.31          0.1815E+06
  12584      1     73     56       15.26          0.1815E+06
  12585      1     73     57       14.92          0.1815E+06
  12586      1     73     58       14.72          0.1815E+06
  12587      1     73     59       14.21          0.1815E+06
  12588      1     73     60       14.19          0.1815E+06
  12589      1     73     61       13.78          0.1815E+06
  12590      1     73     62       13.61          0.1815E+06
  12591      1     73     63       14.78          0.1815E+06
  12592      1     73     64       14.88          0.1815E+06
  12593      1     73     65       15.40          0.1815E+06
  12594      1     73     66       16.47          0.1815E+06
  12595      1     73     67       17.82          0.1815E+06
  12596      1     73     68       19.48          0.1815E+06
  12597      1     73     69       21.87          0.1815E+06
  12598      1     73     70       25.45          0.1815E+06
  12599      1     73     71       27.01          0.1815E+06
  12600      1     73     72       28.45          0.1815E+06
  12601      1     73     73       28.61          0.1815E+06
  12602      1     73     74       31.26          0.1815E+06
  12603      1     73     75       32.50          0.1815E+06
  12604      1     73     76       34.20          0.1815E+06
  12605      1     73     77       34.09          0.1815E+06
  12606      1     73     78       34.24          0.1815E+06
  12607      1     73     79       34.59          0.1815E+06
  12608      1     73     80       35.15          0.1815E+06
  12609      1     73     81       34.93          0.1815E+06
  12610      1     73     82       33.40          0.1815E+06
  12611      1     73     83       33.20          0.1815E+06
  12612      1     73     84       33.10          0.1815E+06
  12613      1     73     85       33.10          0.1815E+06
  12614      1     73     86       32.60          0.1815E+06
  12615      1     73     87       32.00          0.1815E+06
  12616      1     73     88       31.50          0.1815E+06
  12617      1     73     89       31.30          0.1815E+06
  12618      1     73     90       32.80          0.1815E+06
  12619      1     73     91       34.20          0.1815E+06
  12620      1     73     92       34.80          0.1815E+06
  12621      1     73     93       35.70          0.1815E+06
  12622      1     73     94       36.40          0.1815E+06
  12623      1     73     95       37.00          0.1815E+06
  12624      1     73     96       38.10          0.1815E+06
  12625      1     73     97       38.30          0.1815E+06
  12626      1     73     98       38.30          0.1815E+06
  12627      1     73     99       38.10          0.1815E+06
  12628      1     73    100       38.00          0.1815E+06
  12629      1     73    101       38.00          0.1815E+06
  12630      1     73    102       38.20          0.1815E+06
  12631      1     73    103       38.30          0.1815E+06
  12632      1     73    104       38.20          0.1815E+06
  12633      1     73    105       38.10          0.1815E+06
  12634      1     73    106       37.40          0.1815E+06
  12635      1     73    107       36.60          0.1815E+06
  12636      1     73    108       36.20          0.1815E+06
  12637      1     73    109       36.00          0.1815E+06
  12638      1     73    110       36.00          0.1815E+06
  12639      1     73    111       35.50          0.1815E+06
  12640      1     73    112       33.40          0.1815E+06
  12641      1     73    113       30.60          0.1815E+06
  12642      1     73    114       29.40          0.1815E+06
  12643      1     73    115       28.70          0.1815E+06
  12644      1     73    116       28.70          0.1815E+06
  12645      1     73    117       29.40          0.1815E+06
  12646      1     73    118       30.50          0.1815E+06
  12647      1     73    119       30.20          0.1815E+06
  12648      1     73    120       30.70          0.1815E+06
  12649      1     73    121       32.00          0.1815E+06
  12650      1     73    122       33.20          0.1815E+06
  12651      1     73    123       34.00          0.1815E+06
  12652      1     73    124       34.70          0.1815E+06
  12653      1     73    125       35.70          0.1815E+06
  12654      1     73    126       36.20          0.1815E+06
  12655      1     73    127       36.10          0.1815E+06
  12656      1     73    128       37.00          0.1815E+06
  12657      1     73    129       38.10          0.1815E+06
  12658      1     73    130       38.70          0.1815E+06
  12659      1     73    131       39.10          0.1815E+06
  12660      1     73    132       39.50          0.1815E+06
  12661      1     73    133       40.60          0.1815E+06
  12662      1     73    134       41.70          0.1815E+06
  12663      1     73    135       42.60          0.1815E+06
  12664      1     73    136       43.50          0.1815E+06
  12665      1     73    137       45.30          0.1815E+06
  12666      1     73    138       47.90          0.1815E+06
  12667      1     73    139       49.80          0.1815E+06
  12668      1     73    140       51.00          0.1815E+06
  12669      1     73    141       51.20          0.1815E+06
  12670      1     73    142       49.50          0.1815E+06
  12671      1     73    143       47.70          0.1815E+06
  12672      1     73    144       47.30          0.1815E+06
  12673      1     73    145       46.80          0.1815E+06
  12674      1     73    146       46.80          0.1815E+06
  12675      1     73    147       46.90          0.1815E+06
  12676      1     73    148       46.70          0.1815E+06
  12677      1     73    149       44.40          0.1815E+06
  12678      1     73    150       43.50          0.1815E+06
  12679      1     73    151       43.30          0.1815E+06
  12680      1     73    152       42.80          0.1815E+06
  12681      1     73    153       42.50          0.1815E+06
  12682      1     73    154       41.70          0.1815E+06
  12683      1     73    155       39.90          0.1815E+06
  12684      1     73    156       39.80          0.1815E+06
  12685      1     73    157       39.20          0.1815E+06
  12686      1     73    158       39.70          0.1815E+06
  12687      1     73    159       39.40          0.1815E+06
  12688      1     73    160       38.60          0.1815E+06
  12689      1     73    161       39.10          0.1815E+06
  12690      1     73    162       39.10          0.1815E+06
  12691      1     73    163       38.50          0.1815E+06
  12692      1     73    164       37.20          0.1815E+06
  12693      1     73    165       35.10          0.1815E+06
  12694      1     73    166       34.10          0.1815E+06
  12695      1     73    167       34.20          0.1815E+06
  12696      1     73    168       34.80          0.1815E+06
  12697      1     73    169       35.20          0.1815E+06
  12698      1     73    170       35.50          0.1815E+06
  12699      1     73    171       35.50          0.1815E+06
  12700      1     73    172       35.40          0.1815E+06
  12701      1     73    173       34.40          0.1815E+06
  12702      1     73    174       34.50          0.1815E+06
  12703      1     74      1      -11.92          0.1815E+06
  12704      1     74      2      -11.82          0.1815E+06
  12705      1     74      3      -11.82          0.1815E+06
  12706      1     74      4      -11.42          0.1815E+06
  12707      1     74      5      -11.32          0.1815E+06
  12708      1     74      6      -8.720          0.1815E+06
  12709      1     74      7      -8.320          0.1815E+06
  12710      1     74      8      -6.770          0.1815E+06
  12711      1     74      9      -6.770          0.1815E+06
  12712      1     74     10      -5.820          0.1815E+06
  12713      1     74     11      -6.020          0.1815E+06
  12714      1     74     12      -4.920          0.1815E+06
  12715      1     74     13      -5.270          0.1815E+06
  12716      1     74     14      -5.670          0.1815E+06
  12717      1     74     15      -5.670          0.1815E+06
  12718      1     74     16      -5.020          0.1815E+06
  12719      1     74     17      -5.020          0.1815E+06
  12720      1     74     18      -4.620          0.1815E+06
  12721      1     74     19      -3.760          0.1815E+06
  12722      1     74     20      -2.420          0.1815E+06
  12723      1     74     21      -2.420          0.1815E+06
  12724      1     74     22      -2.520          0.1815E+06
  12725      1     74     23      -2.320          0.1815E+06
  12726      1     74     24      -2.220          0.1815E+06
  12727      1     74     25      0.4400          0.1815E+06
  12728      1     74     26      0.4400          0.1815E+06
  12729      1     74     27       2.440          0.1815E+06
  12730      1     74     28       3.450          0.1815E+06
  12731      1     74     29       4.450          0.1815E+06
  12732      1     74     30       7.960          0.1815E+06
  12733      1     74     31       9.610          0.1815E+06
  12734      1     74     32       9.520          0.1815E+06
  12735      1     74     33       11.72          0.1815E+06
  12736      1     74     34       9.440          0.1815E+06
  12737      1     74     35       7.820          0.1815E+06
  12738      1     74     36       9.060          0.1815E+06
  12739      1     74     37       8.130          0.1815E+06
  12740      1     74     38       11.56          0.1815E+06
  12741      1     74     39       8.500          0.1815E+06
  12742      1     74     40       7.380          0.1815E+06
  12743      1     74     41       8.010          0.1815E+06
  12744      1     74     42       7.320          0.1815E+06
  12745      1     74     43       10.39          0.1815E+06
  12746      1     74     44       8.670          0.1815E+06
  12747      1     74     45       6.820          0.1815E+06
  12748      1     74     46       6.980          0.1815E+06
  12749      1     74     47       6.880          0.1815E+06
  12750      1     74     48       6.650          0.1815E+06
  12751      1     74     49       6.630          0.1815E+06
  12752      1     74     50       6.920          0.1815E+06
  12753      1     74     51       8.730          0.1815E+06
  12754      1     74     52       6.670          0.1815E+06
  12755      1     74     53       8.400          0.1815E+06
  12756      1     74     54       12.77          0.1815E+06
  12757      1     74     55       14.75          0.1815E+06
  12758      1     74     56       15.47          0.1815E+06
  12759      1     74     57       15.52          0.1815E+06
  12760      1     74     58       15.19          0.1815E+06
  12761      1     74     59       15.06          0.1815E+06
  12762      1     74     60       14.67          0.1815E+06
  12763      1     74     61       14.51          0.1815E+06
  12764      1     74     62       14.97          0.1815E+06
  12765      1     74     63       15.02          0.1815E+06
  12766      1     74     64       15.47          0.1815E+06
  12767      1     74     65       16.10          0.1815E+06
  12768      1     74     66       17.13          0.1815E+06
  12769      1     74     67       18.56          0.1815E+06
  12770      1     74     68       20.11          0.1815E+06
  12771      1     74     69       23.37          0.1815E+06
  12772      1     74     70       27.76          0.1815E+06
  12773      1     74     71       31.78          0.1815E+06
  12774      1     74     72       33.13          0.1815E+06
  12775      1     74     73       31.50          0.1815E+06
  12776      1     74     74       33.95          0.1815E+06
  12777      1     74     75       35.11          0.1815E+06
  12778      1     74     76       36.50          0.1815E+06
  12779      1     74     77       34.63          0.1815E+06
  12780      1     74     78       34.27          0.1815E+06
  12781      1     74     79       34.90          0.1815E+06
  12782      1     74     80       35.63          0.1815E+06
  12783      1     74     81       35.43          0.1815E+06
  12784      1     74     82       34.53          0.1815E+06
  12785      1     74     83       32.90          0.1815E+06
  12786      1     74     84       32.50          0.1815E+06
  12787      1     74     85       32.30          0.1815E+06
  12788      1     74     86       32.10          0.1815E+06
  12789      1     74     87       31.60          0.1815E+06
  12790      1     74     88       30.70          0.1815E+06
  12791      1     74     89       29.60          0.1815E+06
  12792      1     74     90       31.00          0.1815E+06
  12793      1     74     91       33.90          0.1815E+06
  12794      1     74     92       34.60          0.1815E+06
  12795      1     74     93       35.60          0.1815E+06
  12796      1     74     94       36.50          0.1815E+06
  12797      1     74     95       37.00          0.1815E+06
  12798      1     74     96       37.40          0.1815E+06
  12799      1     74     97       37.40          0.1815E+06
  12800      1     74     98       37.60          0.1815E+06
  12801      1     74     99       37.80          0.1815E+06
  12802      1     74    100       38.00          0.1815E+06
  12803      1     74    101       38.00          0.1815E+06
  12804      1     74    102       37.80          0.1815E+06
  12805      1     74    103       37.20          0.1815E+06
  12806      1     74    104       37.00          0.1815E+06
  12807      1     74    105       37.20          0.1815E+06
  12808      1     74    106       36.40          0.1815E+06
  12809      1     74    107       35.30          0.1815E+06
  12810      1     74    108       35.30          0.1815E+06
  12811      1     74    109       36.10          0.1815E+06
  12812      1     74    110       36.10          0.1815E+06
  12813      1     74    111       35.10          0.1815E+06
  12814      1     74    112       32.70          0.1815E+06
  12815      1     74    113       30.40          0.1815E+06
  12816      1     74    114       28.80          0.1815E+06
  12817      1     74    115       28.30          0.1815E+06
  12818      1     74    116       28.90          0.1815E+06
  12819      1     74    117       30.40          0.1815E+06
  12820      1     74    118       31.40          0.1815E+06
  12821      1     74    119       31.70          0.1815E+06
  12822      1     74    120       31.80          0.1815E+06
  12823      1     74    121       32.10          0.1815E+06
  12824      1     74    122       33.10          0.1815E+06
  12825      1     74    123       34.60          0.1815E+06
  12826      1     74    124       35.60          0.1815E+06
  12827      1     74    125       36.10          0.1815E+06
  12828      1     74    126       36.50          0.1815E+06
  12829      1     74    127       37.00          0.1815E+06
  12830      1     74    128       37.90          0.1815E+06
  12831      1     74    129       38.50          0.1815E+06
  12832      1     74    130       39.00          0.1815E+06
  12833      1     74    131       39.50          0.1815E+06
  12834      1     74    132       39.90          0.1815E+06
  12835      1     74    133       41.10          0.1815E+06
  12836      1     74    134       42.50          0.1815E+06
  12837      1     74    135       43.40          0.1815E+06
  12838      1     74    136       44.60          0.1815E+06
  12839      1     74    137       47.10          0.1815E+06
  12840      1     74    138       49.40          0.1815E+06
  12841      1     74    139       52.40          0.1815E+06
  12842      1     74    140       57.70          0.1815E+06
  12843      1     74    141       57.70          0.1815E+06
  12844      1     74    142       54.80          0.1815E+06
  12845      1     74    143       53.60          0.1815E+06
  12846      1     74    144       52.00          0.1815E+06
  12847      1     74    145       51.50          0.1815E+06
  12848      1     74    146       51.30          0.1815E+06
  12849      1     74    147       50.60          0.1815E+06
  12850      1     74    148       50.10          0.1815E+06
  12851      1     74    149       49.30          0.1815E+06
  12852      1     74    150       48.40          0.1815E+06
  12853      1     74    151       47.50          0.1815E+06
  12854      1     74    152       45.30          0.1815E+06
  12855      1     74    153       44.20          0.1815E+06
  12856      1     74    154       43.20          0.1815E+06
  12857      1     74    155       42.50          0.1815E+06
  12858      1     74    156       42.40          0.1815E+06
  12859      1     74    157       41.90          0.1815E+06
  12860      1     74    158       41.70          0.1815E+06
  12861      1     74    159       40.90          0.1815E+06
  12862      1     74    160       40.30          0.1815E+06
  12863      1     74    161       40.20          0.1815E+06
  12864      1     74    162       40.20          0.1815E+06
  12865      1     74    163       39.40          0.1815E+06
  12866      1     74    164       38.30          0.1815E+06
  12867      1     74    165       35.80          0.1815E+06
  12868      1     74    166       34.10          0.1815E+06
  12869      1     74    167       34.60          0.1815E+06
  12870      1     74    168       35.00          0.1815E+06
  12871      1     74    169       36.50          0.1815E+06
  12872      1     74    170       37.50          0.1815E+06
  12873      1     74    171       37.60          0.1815E+06
  12874      1     74    172       36.90          0.1815E+06
  12875      1     74    173       35.00          0.1815E+06
  12876      1     74    174       34.40          0.1815E+06
  12877      1     75      1      -12.19          0.1815E+06
  12878      1     75      2      -11.82          0.1815E+06
  12879      1     75      3      -11.82          0.1815E+06
  12880      1     75      4      -11.42          0.1815E+06
  12881      1     75      5      -10.62          0.1815E+06
  12882      1     75      6      -10.22          0.1815E+06
  12883      1     75      7      -10.42          0.1815E+06
  12884      1     75      8      -9.520          0.1815E+06
  12885      1     75      9      -9.520          0.1815E+06
  12886      1     75     10      -8.320          0.1815E+06
  12887      1     75     11      -5.630          0.1815E+06
  12888      1     75     12      -6.220          0.1815E+06
  12889      1     75     13      -5.930          0.1815E+06
  12890      1     75     14      -5.230          0.1815E+06
  12891      1     75     15      -5.230          0.1815E+06
  12892      1     75     16      -4.430          0.1815E+06
  12893      1     75     17      -5.630          0.1815E+06
  12894      1     75     18      -4.630          0.1815E+06
  12895      1     75     19      -3.730          0.1815E+06
  12896      1     75     20      -4.030          0.1815E+06
  12897      1     75     21      -4.030          0.1815E+06
  12898      1     75     22      -3.130          0.1815E+06
  12899      1     75     23      -2.740          0.1815E+06
  12900      1     75     24      -2.340          0.1815E+06
  12901      1     75     25      0.4400          0.1815E+06
  12902      1     75     26      0.4400          0.1815E+06
  12903      1     75     27       2.440          0.1815E+06
  12904      1     75     28       3.450          0.1815E+06
  12905      1     75     29       4.450          0.1815E+06
  12906      1     75     30       7.960          0.1815E+06
  12907      1     75     31       5.250          0.1815E+06
  12908      1     75     32       9.520          0.1815E+06
  12909      1     75     33       10.10          0.1815E+06
  12910      1     75     34       13.22          0.1815E+06
  12911      1     75     35       7.510          0.1815E+06
  12912      1     75     36       7.320          0.1815E+06
  12913      1     75     37       7.860          0.1815E+06
  12914      1     75     38       7.130          0.1815E+06
  12915      1     75     39       8.920          0.1815E+06
  12916      1     75     40       10.34          0.1815E+06
  12917      1     75     41       9.590          0.1815E+06
  12918      1     75     42       9.650          0.1815E+06
  12919      1     75     43       9.460          0.1815E+06
  12920      1     75     44       6.780          0.1815E+06
  12921      1     75     45       6.420          0.1815E+06
  12922      1     75     46       6.280          0.1815E+06
  12923      1     75     47       6.570          0.1815E+06
  12924      1     75     48       6.760          0.1815E+06
  12925      1     75     49       6.510          0.1815E+06
  12926      1     75     50       6.530          0.1815E+06
  12927      1     75     51       5.460          0.1815E+06
  12928      1     75     52       6.670          0.1815E+06
  12929      1     75     53       9.570          0.1815E+06
  12930      1     75     54       14.05          0.1815E+06
  12931      1     75     55       15.35          0.1815E+06
  12932      1     75     56       15.77          0.1815E+06
  12933      1     75     57       15.89          0.1815E+06
  12934      1     75     58       15.48          0.1815E+06
  12935      1     75     59       15.13          0.1815E+06
  12936      1     75     60       15.07          0.1815E+06
  12937      1     75     61       15.02          0.1815E+06
  12938      1     75     62       15.26          0.1815E+06
  12939      1     75     63       15.32          0.1815E+06
  12940      1     75     64       15.52          0.1815E+06
  12941      1     75     65       15.53          0.1815E+06
  12942      1     75     66       16.80          0.1815E+06
  12943      1     75     67       17.95          0.1815E+06
  12944      1     75     68       19.92          0.1815E+06
  12945      1     75     69       23.19          0.1815E+06
  12946      1     75     70       27.12          0.1815E+06
  12947      1     75     71       30.70          0.1815E+06
  12948      1     75     72       32.93          0.1815E+06
  12949      1     75     73       33.11          0.1815E+06
  12950      1     75     74       34.50          0.1815E+06
  12951      1     75     75       35.61          0.1815E+06
  12952      1     75     76       35.63          0.1815E+06
  12953      1     75     77       35.24          0.1815E+06
  12954      1     75     78       36.06          0.1815E+06
  12955      1     75     79       35.99          0.1815E+06
  12956      1     75     80       35.83          0.1815E+06
  12957      1     75     81       35.61          0.1815E+06
  12958      1     75     82       35.36          0.1815E+06
  12959      1     75     83       33.00          0.1815E+06
  12960      1     75     84       32.30          0.1815E+06
  12961      1     75     85       32.10          0.1815E+06
  12962      1     75     86       31.90          0.1815E+06
  12963      1     75     87       31.50          0.1815E+06
  12964      1     75     88       30.60          0.1815E+06
  12965      1     75     89       29.70          0.1815E+06
  12966      1     75     90       31.10          0.1815E+06
  12967      1     75     91       35.10          0.1815E+06
  12968      1     75     92       36.10          0.1815E+06
  12969      1     75     93       36.10          0.1815E+06
  12970      1     75     94       36.50          0.1815E+06
  12971      1     75     95       36.90          0.1815E+06
  12972      1     75     96       36.90          0.1815E+06
  12973      1     75     97       36.80          0.1815E+06
  12974      1     75     98       36.80          0.1815E+06
  12975      1     75     99       36.90          0.1815E+06
  12976      1     75    100       37.20          0.1815E+06
  12977      1     75    101       37.30          0.1815E+06
  12978      1     75    102       36.90          0.1815E+06
  12979      1     75    103       36.60          0.1815E+06
  12980      1     75    104       36.50          0.1815E+06
  12981      1     75    105       36.40          0.1815E+06
  12982      1     75    106       35.90          0.1815E+06
  12983      1     75    107       34.40          0.1815E+06
  12984      1     75    108       34.10          0.1815E+06
  12985      1     75    109       35.10          0.1815E+06
  12986      1     75    110       34.90          0.1815E+06
  12987      1     75    111       33.40          0.1815E+06
  12988      1     75    112       30.90          0.1815E+06
  12989      1     75    113       28.90          0.1815E+06
  12990      1     75    114       27.90          0.1815E+06
  12991      1     75    115       27.80          0.1815E+06
  12992      1     75    116       29.00          0.1815E+06
  12993      1     75    117       30.80          0.1815E+06
  12994      1     75    118       32.20          0.1815E+06
  12995      1     75    119       32.90          0.1815E+06
  12996      1     75    120       33.20          0.1815E+06
  12997      1     75    121       33.00          0.1815E+06
  12998      1     75    122       33.10          0.1815E+06
  12999      1     75    123       34.40          0.1815E+06
  13000      1     75    124       35.80          0.1815E+06
  13001      1     75    125       36.50          0.1815E+06
  13002      1     75    126       37.00          0.1815E+06
  13003      1     75    127       38.00          0.1815E+06
  13004      1     75    128       39.00          0.1815E+06
  13005      1     75    129       39.50          0.1815E+06
  13006      1     75    130       39.50          0.1815E+06
  13007      1     75    131       40.10          0.1815E+06
  13008      1     75    132       41.00          0.1815E+06
  13009      1     75    133       42.20          0.1815E+06
  13010      1     75    134       43.30          0.1815E+06
  13011      1     75    135       44.40          0.1815E+06
  13012      1     75    136       46.10          0.1815E+06
  13013      1     75    137       48.90          0.1815E+06
  13014      1     75    138       51.40          0.1815E+06
  13015      1     75    139       54.40          0.1815E+06
  13016      1     75    140       60.30          0.1815E+06
  13017      1     75    141       62.70          0.1815E+06
  13018      1     75    142       61.50          0.1815E+06
  13019      1     75    143       59.90          0.1815E+06
  13020      1     75    144       57.90          0.1815E+06
  13021      1     75    145       57.20          0.1815E+06
  13022      1     75    146       56.40          0.1815E+06
  13023      1     75    147       55.80          0.1815E+06
  13024      1     75    148       55.20          0.1815E+06
  13025      1     75    149       54.40          0.1815E+06
  13026      1     75    150       53.40          0.1815E+06
  13027      1     75    151       52.10          0.1815E+06
  13028      1     75    152       50.10          0.1815E+06
  13029      1     75    153       47.40          0.1815E+06
  13030      1     75    154       45.60          0.1815E+06
  13031      1     75    155       45.10          0.1815E+06
  13032      1     75    156       44.70          0.1815E+06
  13033      1     75    157       43.60          0.1815E+06
  13034      1     75    158       42.70          0.1815E+06
  13035      1     75    159       41.80          0.1815E+06
  13036      1     75    160       41.00          0.1815E+06
  13037      1     75    161       40.80          0.1815E+06
  13038      1     75    162       40.80          0.1815E+06
  13039      1     75    163       40.80          0.1815E+06
  13040      1     75    164       40.50          0.1815E+06
  13041      1     75    165       37.30          0.1815E+06
  13042      1     75    166       34.30          0.1815E+06
  13043      1     75    167       35.30          0.1815E+06
  13044      1     75    168       37.10          0.1815E+06
  13045      1     75    169       39.10          0.1815E+06
  13046      1     75    170       39.70          0.1815E+06
  13047      1     75    171       39.10          0.1815E+06
  13048      1     75    172       38.30          0.1815E+06
  13049      1     75    173       36.90          0.1815E+06
  13050      1     75    174       35.40          0.1815E+06
  13051      1     76      1      -12.19          0.1815E+06
  13052      1     76      2      -12.01          0.1815E+06
  13053      1     76      3      -12.01          0.1815E+06
  13054      1     76      4      -11.83          0.1815E+06
  13055      1     76      5      -11.33          0.1815E+06
  13056      1     76      6      -11.09          0.1815E+06
  13057      1     76      7      -11.14          0.1815E+06
  13058      1     76      8      -10.67          0.1815E+06
  13059      1     76      9      -10.67          0.1815E+06
  13060      1     76     10      -9.040          0.1815E+06
  13061      1     76     11      -7.330          0.1815E+06
  13062      1     76     12      -7.060          0.1815E+06
  13063      1     76     13      -6.700          0.1815E+06
  13064      1     76     14      -5.750          0.1815E+06
  13065      1     76     15      -5.750          0.1815E+06
  13066      1     76     16      -5.500          0.1815E+06
  13067      1     76     17      -5.710          0.1815E+06
  13068      1     76     18      -5.020          0.1815E+06
  13069      1     76     19      -4.030          0.1815E+06
  13070      1     76     20      -4.030          0.1815E+06
  13071      1     76     21      -4.030          0.1815E+06
  13072      1     76     22      -3.130          0.1815E+06
  13073      1     76     23      -2.740          0.1815E+06
  13074      1     76     24     -0.8000          0.1815E+06
  13075      1     76     25      0.4400          0.1815E+06
  13076      1     76     26      0.4400          0.1815E+06
  13077      1     76     27       1.440          0.1815E+06
  13078      1     76     28       2.440          0.1815E+06
  13079      1     76     29       3.450          0.1815E+06
  13080      1     76     30       6.460          0.1815E+06
  13081      1     76     31       7.460          0.1815E+06
  13082      1     76     32       7.460          0.1815E+06
  13083      1     76     33       8.460          0.1815E+06
  13084      1     76     34       8.470          0.1815E+06
  13085      1     76     35       7.470          0.1815E+06
  13086      1     76     36       6.470          0.1815E+06
  13087      1     76     37       5.480          0.1815E+06
  13088      1     76     38       5.480          0.1815E+06
  13089      1     76     39       4.980          0.1815E+06
  13090      1     76     40       4.990          0.1815E+06
  13091      1     76     41       4.490          0.1815E+06
  13092      1     76     42       6.490          0.1815E+06
  13093      1     76     43       6.730          0.1815E+06
  13094      1     76     44       6.170          0.1815E+06
  13095      1     76     45       5.820          0.1815E+06
  13096      1     76     46       6.300          0.1815E+06
  13097      1     76     47       6.210          0.1815E+06
  13098      1     76     48       6.280          0.1815E+06
  13099      1     76     49       6.510          0.1815E+06
  13100      1     76     50       6.360          0.1815E+06
  13101      1     76     51       6.550          0.1815E+06
  13102      1     76     52       8.640          0.1815E+06
  13103      1     76     53       14.14          0.1815E+06
  13104      1     76     54       14.18          0.1815E+06
  13105      1     76     55       15.27          0.1815E+06
  13106      1     76     56       15.71          0.1815E+06
  13107      1     76     57       15.89          0.1815E+06
  13108      1     76     58       15.42          0.1815E+06
  13109      1     76     59       15.36          0.1815E+06
  13110      1     76     60       15.22          0.1815E+06
  13111      1     76     61       15.14          0.1815E+06
  13112      1     76     62       15.13          0.1815E+06
  13113      1     76     63       15.18          0.1815E+06
  13114      1     76     64       15.96          0.1815E+06
  13115      1     76     65       15.80          0.1815E+06
  13116      1     76     66       16.88          0.1815E+06
  13117      1     76     67       17.42          0.1815E+06
  13118      1     76     68       19.39          0.1815E+06
  13119      1     76     69       21.92          0.1815E+06
  13120      1     76     70       26.00          0.1815E+06
  13121      1     76     71       29.45          0.1815E+06
  13122      1     76     72       32.84          0.1815E+06
  13123      1     76     73       34.90          0.1815E+06
  13124      1     76     74       34.86          0.1815E+06
  13125      1     76     75       35.09          0.1815E+06
  13126      1     76     76       35.18          0.1815E+06
  13127      1     76     77       35.66          0.1815E+06
  13128      1     76     78       36.56          0.1815E+06
  13129      1     76     79       36.63          0.1815E+06
  13130      1     76     80       36.40          0.1815E+06
  13131      1     76     81       36.15          0.1815E+06
  13132      1     76     82       35.41          0.1815E+06
  13133      1     76     83       33.47          0.1815E+06
  13134      1     76     84       32.70          0.1815E+06
  13135      1     76     85       32.50          0.1815E+06
  13136      1     76     86       32.30          0.1815E+06
  13137      1     76     87       31.60          0.1815E+06
  13138      1     76     88       30.40          0.1815E+06
  13139      1     76     89       29.60          0.1815E+06
  13140      1     76     90       30.40          0.1815E+06
  13141      1     76     91       33.90          0.1815E+06
  13142      1     76     92       36.30          0.1815E+06
  13143      1     76     93       36.60          0.1815E+06
  13144      1     76     94       36.50          0.1815E+06
  13145      1     76     95       36.30          0.1815E+06
  13146      1     76     96       36.20          0.1815E+06
  13147      1     76     97       36.30          0.1815E+06
  13148      1     76     98       36.10          0.1815E+06
  13149      1     76     99       35.70          0.1815E+06
  13150      1     76    100       35.80          0.1815E+06
  13151      1     76    101       36.00          0.1815E+06
  13152      1     76    102       35.60          0.1815E+06
  13153      1     76    103       35.30          0.1815E+06
  13154      1     76    104       35.50          0.1815E+06
  13155      1     76    105       35.60          0.1815E+06
  13156      1     76    106       35.50          0.1815E+06
  13157      1     76    107       34.40          0.1815E+06
  13158      1     76    108       32.40          0.1815E+06
  13159      1     76    109       32.20          0.1815E+06
  13160      1     76    110       32.60          0.1815E+06
  13161      1     76    111       30.90          0.1815E+06
  13162      1     76    112       28.80          0.1815E+06
  13163      1     76    113       27.60          0.1815E+06
  13164      1     76    114       27.50          0.1815E+06
  13165      1     76    115       28.60          0.1815E+06
  13166      1     76    116       30.10          0.1815E+06
  13167      1     76    117       31.50          0.1815E+06
  13168      1     76    118       32.70          0.1815E+06
  13169      1     76    119       33.60          0.1815E+06
  13170      1     76    120       34.40          0.1815E+06
  13171      1     76    121       34.80          0.1815E+06
  13172      1     76    122       33.80          0.1815E+06
  13173      1     76    123       33.80          0.1815E+06
  13174      1     76    124       35.00          0.1815E+06
  13175      1     76    125       36.40          0.1815E+06
  13176      1     76    126       37.10          0.1815E+06
  13177      1     76    127       38.40          0.1815E+06
  13178      1     76    128       39.80          0.1815E+06
  13179      1     76    129       40.90          0.1815E+06
  13180      1     76    130       40.90          0.1815E+06
  13181      1     76    131       41.40          0.1815E+06
  13182      1     76    132       42.30          0.1815E+06
  13183      1     76    133       42.80          0.1815E+06
  13184      1     76    134       43.80          0.1815E+06
  13185      1     76    135       45.30          0.1815E+06
  13186      1     76    136       47.60          0.1815E+06
  13187      1     76    137       50.20          0.1815E+06
  13188      1     76    138       52.60          0.1815E+06
  13189      1     76    139       56.00          0.1815E+06
  13190      1     76    140       61.30          0.1815E+06
  13191      1     76    141       64.80          0.1815E+06
  13192      1     76    142       65.60          0.1815E+06
  13193      1     76    143       65.40          0.1815E+06
  13194      1     76    144       63.40          0.1815E+06
  13195      1     76    145       62.30          0.1815E+06
  13196      1     76    146       61.40          0.1815E+06
  13197      1     76    147       60.40          0.1815E+06
  13198      1     76    148       60.10          0.1815E+06
  13199      1     76    149       59.00          0.1815E+06
  13200      1     76    150       58.10          0.1815E+06
  13201      1     76    151       56.20          0.1815E+06
  13202      1     76    152       54.10          0.1815E+06
  13203      1     76    153       51.30          0.1815E+06
  13204      1     76    154       47.80          0.1815E+06
  13205      1     76    155       46.00          0.1815E+06
  13206      1     76    156       45.80          0.1815E+06
  13207      1     76    157       44.10          0.1815E+06
  13208      1     76    158       42.90          0.1815E+06
  13209      1     76    159       41.90          0.1815E+06
  13210      1     76    160       41.30          0.1815E+06
  13211      1     76    161       41.20          0.1815E+06
  13212      1     76    162       41.20          0.1815E+06
  13213      1     76    163       41.30          0.1815E+06
  13214      1     76    164       41.10          0.1815E+06
  13215      1     76    165       38.20          0.1815E+06
  13216      1     76    166       34.30          0.1815E+06
  13217      1     76    167       36.10          0.1815E+06
  13218      1     76    168       39.40          0.1815E+06
  13219      1     76    169       40.70          0.1815E+06
  13220      1     76    170       41.10          0.1815E+06
  13221      1     76    171       40.80          0.1815E+06
  13222      1     76    172       40.00          0.1815E+06
  13223      1     76    173       38.80          0.1815E+06
  13224      1     76    174       38.20          0.1815E+06
  13225      1     77      1      -12.19          0.1815E+06
  13226      1     77      2      -12.01          0.1815E+06
  13227      1     77      3      -12.01          0.1815E+06
  13228      1     77      4      -11.83          0.1815E+06
  13229      1     77      5      -11.33          0.1815E+06
  13230      1     77      6      -11.09          0.1815E+06
  13231      1     77      7      -11.14          0.1815E+06
  13232      1     77      8      -10.67          0.1815E+06
  13233      1     77      9      -10.67          0.1815E+06
  13234      1     77     10      -9.040          0.1815E+06
  13235      1     77     11      -7.330          0.1815E+06
  13236      1     77     12      -7.060          0.1815E+06
  13237      1     77     13      -6.700          0.1815E+06
  13238      1     77     14      -5.750          0.1815E+06
  13239      1     77     15      -5.750          0.1815E+06
  13240      1     77     16      -5.500          0.1815E+06
  13241      1     77     17      -5.710          0.1815E+06
  13242      1     77     18      -5.020          0.1815E+06
  13243      1     77     19      -4.030          0.1815E+06
  13244      1     77     20      -4.030          0.1815E+06
  13245      1     77     21      -4.030          0.1815E+06
  13246      1     77     22      -3.130          0.1815E+06
  13247      1     77     23      -2.740          0.1815E+06
  13248      1     77     24     -0.8000          0.1815E+06
  13249      1     77     25      0.4400          0.1815E+06
  13250      1     77     26      0.4400          0.1815E+06
  13251      1     77     27       1.440          0.1815E+06
  13252      1     77     28       2.440          0.1815E+06
  13253      1     77     29       3.450          0.1815E+06
  13254      1     77     30       6.460          0.1815E+06
  13255      1     77     31       7.460          0.1815E+06
  13256      1     77     32       7.460          0.1815E+06
  13257      1     77     33       8.460          0.1815E+06
  13258      1     77     34       8.470          0.1815E+06
  13259      1     77     35       7.470          0.1815E+06
  13260      1     77     36       6.470          0.1815E+06
  13261      1     77     37       5.480          0.1815E+06
  13262      1     77     38       5.480          0.1815E+06
  13263      1     77     39       4.980          0.1815E+06
  13264      1     77     40       4.990          0.1815E+06
  13265      1     77     41       4.490          0.1815E+06
  13266      1     77     42       6.490          0.1815E+06
  13267      1     77     43       6.400          0.1815E+06
  13268      1     77     44       6.300          0.1815E+06
  13269      1     77     45       6.130          0.1815E+06
  13270      1     77     46       5.920          0.1815E+06
  13271      1     77     47       6.550          0.1815E+06
  13272      1     77     48       6.110          0.1815E+06
  13273      1     77     49       6.210          0.1815E+06
  13274      1     77     50       6.110          0.1815E+06
  13275      1     77     51       6.800          0.1815E+06
  13276      1     77     52       9.100          0.1815E+06
  13277      1     77     53       14.27          0.1815E+06
  13278      1     77     54       14.84          0.1815E+06
  13279      1     77     55       14.92          0.1815E+06
  13280      1     77     56       15.57          0.1815E+06
  13281      1     77     57       15.52          0.1815E+06
  13282      1     77     58       15.59          0.1815E+06
  13283      1     77     59       15.65          0.1815E+06
  13284      1     77     60       15.31          0.1815E+06
  13285      1     77     61       15.10          0.1815E+06
  13286      1     77     62       14.57          0.1815E+06
  13287      1     77     63       15.23          0.1815E+06
  13288      1     77     64       15.90          0.1815E+06
  13289      1     77     65       16.30          0.1815E+06
  13290      1     77     66       16.45          0.1815E+06
  13291      1     77     67       17.57          0.1815E+06
  13292      1     77     68       18.94          0.1815E+06
  13293      1     77     69       21.31          0.1815E+06
  13294      1     77     70       24.85          0.1815E+06
  13295      1     77     71       29.17          0.1815E+06
  13296      1     77     72       32.97          0.1815E+06
  13297      1     77     73       35.36          0.1815E+06
  13298      1     77     74       35.41          0.1815E+06
  13299      1     77     75       35.59          0.1815E+06
  13300      1     77     76       35.56          0.1815E+06
  13301      1     77     77       36.68          0.1815E+06
  13302      1     77     78       37.18          0.1815E+06
  13303      1     77     79       36.72          0.1815E+06
  13304      1     77     80       36.29          0.1815E+06
  13305      1     77     81       36.06          0.1815E+06
  13306      1     77     82       35.79          0.1815E+06
  13307      1     77     83       35.12          0.1815E+06
  13308      1     77     84       33.60          0.1815E+06
  13309      1     77     85       33.70          0.1815E+06
  13310      1     77     86       33.20          0.1815E+06
  13311      1     77     87       31.80          0.1815E+06
  13312      1     77     88       29.90          0.1815E+06
  13313      1     77     89       28.90          0.1815E+06
  13314      1     77     90       30.90          0.1815E+06
  13315      1     77     91       34.50          0.1815E+06
  13316      1     77     92       36.10          0.1815E+06
  13317      1     77     93       36.60          0.1815E+06
  13318      1     77     94       36.30          0.1815E+06
  13319      1     77     95       35.90          0.1815E+06
  13320      1     77     96       35.70          0.1815E+06
  13321      1     77     97       35.70          0.1815E+06
  13322      1     77     98       35.20          0.1815E+06
  13323      1     77     99       34.20          0.1815E+06
  13324      1     77    100       33.90          0.1815E+06
  13325      1     77    101       34.00          0.1815E+06
  13326      1     77    102       33.70          0.1815E+06
  13327      1     77    103       33.60          0.1815E+06
  13328      1     77    104       34.00          0.1815E+06
  13329      1     77    105       34.40          0.1815E+06
  13330      1     77    106       34.40          0.1815E+06
  13331      1     77    107       33.60          0.1815E+06
  13332      1     77    108       32.00          0.1815E+06
  13333      1     77    109       29.60          0.1815E+06
  13334      1     77    110       30.10          0.1815E+06
  13335      1     77    111       28.50          0.1815E+06
  13336      1     77    112       26.80          0.1815E+06
  13337      1     77    113       26.70          0.1815E+06
  13338      1     77    114       28.00          0.1815E+06
  13339      1     77    115       30.40          0.1815E+06
  13340      1     77    116       31.10          0.1815E+06
  13341      1     77    117       31.90          0.1815E+06
  13342      1     77    118       32.90          0.1815E+06
  13343      1     77    119       33.90          0.1815E+06
  13344      1     77    120       35.10          0.1815E+06
  13345      1     77    121       36.10          0.1815E+06
  13346      1     77    122       35.90          0.1815E+06
  13347      1     77    123       34.20          0.1815E+06
  13348      1     77    124       33.90          0.1815E+06
  13349      1     77    125       34.80          0.1815E+06
  13350      1     77    126       36.40          0.1815E+06
  13351      1     77    127       38.20          0.1815E+06
  13352      1     77    128       39.40          0.1815E+06
  13353      1     77    129       40.90          0.1815E+06
  13354      1     77    130       41.40          0.1815E+06
  13355      1     77    131       41.70          0.1815E+06
  13356      1     77    132       42.00          0.1815E+06
  13357      1     77    133       42.60          0.1815E+06
  13358      1     77    134       43.80          0.1815E+06
  13359      1     77    135       45.70          0.1815E+06
  13360      1     77    136       47.70          0.1815E+06
  13361      1     77    137       49.70          0.1815E+06
  13362      1     77    138       52.40          0.1815E+06
  13363      1     77    139       56.20          0.1815E+06
  13364      1     77    140       61.90          0.1815E+06
  13365      1     77    141       65.70          0.1815E+06
  13366      1     77    142       65.90          0.1815E+06
  13367      1     77    143       65.90          0.1815E+06
  13368      1     77    144       65.70          0.1815E+06
  13369      1     77    145       64.30          0.1815E+06
  13370      1     77    146       62.40          0.1815E+06
  13371      1     77    147       61.40          0.1815E+06
  13372      1     77    148       61.70          0.1815E+06
  13373      1     77    149       61.80          0.1815E+06
  13374      1     77    150       61.00          0.1815E+06
  13375      1     77    151       59.20          0.1815E+06
  13376      1     77    152       57.10          0.1815E+06
  13377      1     77    153       54.60          0.1815E+06
  13378      1     77    154       50.80          0.1815E+06
  13379      1     77    155       48.30          0.1815E+06
  13380      1     77    156       46.40          0.1815E+06
  13381      1     77    157       44.00          0.1815E+06
  13382      1     77    158       42.50          0.1815E+06
  13383      1     77    159       42.00          0.1815E+06
  13384      1     77    160       41.80          0.1815E+06
  13385      1     77    161       41.90          0.1815E+06
  13386      1     77    162       41.70          0.1815E+06
  13387      1     77    163       41.20          0.1815E+06
  13388      1     77    164       40.60          0.1815E+06
  13389      1     77    165       38.30          0.1815E+06
  13390      1     77    166       35.50          0.1815E+06
  13391      1     77    167       37.10          0.1815E+06
  13392      1     77    168       40.50          0.1815E+06
  13393      1     77    169       41.80          0.1815E+06
  13394      1     77    170       42.10          0.1815E+06
  13395      1     77    171       42.20          0.1815E+06
  13396      1     77    172       41.90          0.1815E+06
  13397      1     77    173       41.80          0.1815E+06
  13398      1     77    174       43.00          0.1815E+06
  13399      1     78      1      -12.13          0.1815E+06
  13400      1     78      2      -11.73          0.1815E+06
  13401      1     78      3      -11.73          0.1815E+06
  13402      1     78      4      -11.43          0.1815E+06
  13403      1     78      5      -11.33          0.1815E+06
  13404      1     78      6      -11.23          0.1815E+06
  13405      1     78      7      -11.32          0.1815E+06
  13406      1     78      8      -11.13          0.1815E+06
  13407      1     78      9      -11.13          0.1815E+06
  13408      1     78     10      -9.530          0.1815E+06
  13409      1     78     11      -8.430          0.1815E+06
  13410      1     78     12      -7.730          0.1815E+06
  13411      1     78     13      -7.430          0.1815E+06
  13412      1     78     14      -6.730          0.1815E+06
  13413      1     78     15      -6.730          0.1815E+06
  13414      1     78     16      -6.530          0.1815E+06
  13415      1     78     17      -5.710          0.1815E+06
  13416      1     78     18      -5.020          0.1815E+06
  13417      1     78     19      -4.030          0.1815E+06
  13418      1     78     20      -4.030          0.1815E+06
  13419      1     78     21      -4.030          0.1815E+06
  13420      1     78     22      -3.730          0.1815E+06
  13421      1     78     23      -3.230          0.1815E+06
  13422      1     78     24      -2.730          0.1815E+06
  13423      1     78     25      0.4400          0.1815E+06
  13424      1     78     26      0.4400          0.1815E+06
  13425      1     78     27      0.4500          0.1815E+06
  13426      1     78     28       1.450          0.1815E+06
  13427      1     78     29       3.450          0.1815E+06
  13428      1     78     30       4.460          0.1815E+06
  13429      1     78     31       6.460          0.1815E+06
  13430      1     78     32       6.460          0.1815E+06
  13431      1     78     33       7.460          0.1815E+06
  13432      1     78     34       6.470          0.1815E+06
  13433      1     78     35       5.470          0.1815E+06
  13434      1     78     36       4.480          0.1815E+06
  13435      1     78     37       4.480          0.1815E+06
  13436      1     78     38       4.480          0.1815E+06
  13437      1     78     39       6.090          0.1815E+06
  13438      1     78     40       9.650          0.1815E+06
  13439      1     78     41       5.490          0.1815E+06
  13440      1     78     42       6.490          0.1815E+06
  13441      1     78     43       7.210          0.1815E+06
  13442      1     78     44       6.260          0.1815E+06
  13443      1     78     45       6.030          0.1815E+06
  13444      1     78     46       6.280          0.1815E+06
  13445      1     78     47       6.340          0.1815E+06
  13446      1     78     48       6.190          0.1815E+06
  13447      1     78     49       7.800          0.1815E+06
  13448      1     78     50       6.670          0.1815E+06
  13449      1     78     51       8.220          0.1815E+06
  13450      1     78     52       9.840          0.1815E+06
  13451      1     78     53       14.31          0.1815E+06
  13452      1     78     54       14.97          0.1815E+06
  13453      1     78     55       15.06          0.1815E+06
  13454      1     78     56       14.32          0.1815E+06
  13455      1     78     57       14.67          0.1815E+06
  13456      1     78     58       14.85          0.1815E+06
  13457      1     78     59       14.81          0.1815E+06
  13458      1     78     60       15.11          0.1815E+06
  13459      1     78     61       15.07          0.1815E+06
  13460      1     78     62       14.97          0.1815E+06
  13461      1     78     63       15.06          0.1815E+06
  13462      1     78     64       16.26          0.1815E+06
  13463      1     78     65       15.96          0.1815E+06
  13464      1     78     66       16.92          0.1815E+06
  13465      1     78     67       17.15          0.1815E+06
  13466      1     78     68       18.60          0.1815E+06
  13467      1     78     69       21.06          0.1815E+06
  13468      1     78     70       24.96          0.1815E+06
  13469      1     78     71       29.35          0.1815E+06
  13470      1     78     72       33.72          0.1815E+06
  13471      1     78     73       35.11          0.1815E+06
  13472      1     78     74       35.97          0.1815E+06
  13473      1     78     75       35.99          0.1815E+06
  13474      1     78     76       36.16          0.1815E+06
  13475      1     78     77       36.74          0.1815E+06
  13476      1     78     78       36.72          0.1815E+06
  13477      1     78     79       36.77          0.1815E+06
  13478      1     78     80       36.74          0.1815E+06
  13479      1     78     81       36.38          0.1815E+06
  13480      1     78     82       35.81          0.1815E+06
  13481      1     78     83       35.29          0.1815E+06
  13482      1     78     84       35.20          0.1815E+06
  13483      1     78     85       35.00          0.1815E+06
  13484      1     78     86       33.60          0.1815E+06
  13485      1     78     87       31.80          0.1815E+06
  13486      1     78     88       29.10          0.1815E+06
  13487      1     78     89       28.30          0.1815E+06
  13488      1     78     90       34.90          0.1815E+06
  13489      1     78     91       37.20          0.1815E+06
  13490      1     78     92       36.40          0.1815E+06
  13491      1     78     93       36.00          0.1815E+06
  13492      1     78     94       36.10          0.1815E+06
  13493      1     78     95       36.00          0.1815E+06
  13494      1     78     96       35.80          0.1815E+06
  13495      1     78     97       35.10          0.1815E+06
  13496      1     78     98       34.00          0.1815E+06
  13497      1     78     99       33.00          0.1815E+06
  13498      1     78    100       32.30          0.1815E+06
  13499      1     78    101       31.80          0.1815E+06
  13500      1     78    102       31.80          0.1815E+06
  13501      1     78    103       32.10          0.1815E+06
  13502      1     78    104       32.50          0.1815E+06
  13503      1     78    105       32.90          0.1815E+06
  13504      1     78    106       33.00          0.1815E+06
  13505      1     78    107       32.60          0.1815E+06
  13506      1     78    108       31.60          0.1815E+06
  13507      1     78    109       29.60          0.1815E+06
  13508      1     78    110       27.50          0.1815E+06
  13509      1     78    111       25.80          0.1815E+06
  13510      1     78    112       25.00          0.1815E+06
  13511      1     78    113       26.00          0.1815E+06
  13512      1     78    114       28.40          0.1815E+06
  13513      1     78    115       30.00          0.1815E+06
  13514      1     78    116       31.40          0.1815E+06
  13515      1     78    117       32.50          0.1815E+06
  13516      1     78    118       33.20          0.1815E+06
  13517      1     78    119       33.80          0.1815E+06
  13518      1     78    120       35.10          0.1815E+06
  13519      1     78    121       36.30          0.1815E+06
  13520      1     78    122       36.30          0.1815E+06
  13521      1     78    123       34.80          0.1815E+06
  13522      1     78    124       34.30          0.1815E+06
  13523      1     78    125       34.50          0.1815E+06
  13524      1     78    126       35.10          0.1815E+06
  13525      1     78    127       36.70          0.1815E+06
  13526      1     78    128       38.00          0.1815E+06
  13527      1     78    129       38.90          0.1815E+06
  13528      1     78    130       39.70          0.1815E+06
  13529      1     78    131       40.10          0.1815E+06
  13530      1     78    132       40.10          0.1815E+06
  13531      1     78    133       41.60          0.1815E+06
  13532      1     78    134       42.90          0.1815E+06
  13533      1     78    135       44.20          0.1815E+06
  13534      1     78    136       46.50          0.1815E+06
  13535      1     78    137       48.80          0.1815E+06
  13536      1     78    138       51.60          0.1815E+06
  13537      1     78    139       55.40          0.1815E+06
  13538      1     78    140       59.70          0.1815E+06
  13539      1     78    141       63.20          0.1815E+06
  13540      1     78    142       64.20          0.1815E+06
  13541      1     78    143       64.50          0.1815E+06
  13542      1     78    144       64.90          0.1815E+06
  13543      1     78    145       64.40          0.1815E+06
  13544      1     78    146       62.80          0.1815E+06
  13545      1     78    147       61.80          0.1815E+06
  13546      1     78    148       61.60          0.1815E+06
  13547      1     78    149       61.60          0.1815E+06
  13548      1     78    150       60.70          0.1815E+06
  13549      1     78    151       58.70          0.1815E+06
  13550      1     78    152       56.40          0.1815E+06
  13551      1     78    153       54.60          0.1815E+06
  13552      1     78    154       51.90          0.1815E+06
  13553      1     78    155       48.80          0.1815E+06
  13554      1     78    156       45.50          0.1815E+06
  13555      1     78    157       43.60          0.1815E+06
  13556      1     78    158       42.60          0.1815E+06
  13557      1     78    159       42.30          0.1815E+06
  13558      1     78    160       42.40          0.1815E+06
  13559      1     78    161       42.50          0.1815E+06
  13560      1     78    162       42.20          0.1815E+06
  13561      1     78    163       41.10          0.1815E+06
  13562      1     78    164       39.60          0.1815E+06
  13563      1     78    165       38.10          0.1815E+06
  13564      1     78    166       36.20          0.1815E+06
  13565      1     78    167       37.20          0.1815E+06
  13566      1     78    168       40.60          0.1815E+06
  13567      1     78    169       42.50          0.1815E+06
  13568      1     78    170       43.00          0.1815E+06
  13569      1     78    171       43.40          0.1815E+06
  13570      1     78    172       44.10          0.1815E+06
  13571      1     78    173       45.90          0.1815E+06
  13572      1     78    174       47.80          0.1815E+06
  13573      1     79      1      -11.93          0.1815E+06
  13574      1     79      2      -11.74          0.1815E+06
  13575      1     79      3      -11.74          0.1815E+06
  13576      1     79      4      -11.44          0.1815E+06
  13577      1     79      5      -11.24          0.1815E+06
  13578      1     79      6      -11.14          0.1815E+06
  13579      1     79      7      -11.14          0.1815E+06
  13580      1     79      8      -10.94          0.1815E+06
  13581      1     79      9      -10.94          0.1815E+06
  13582      1     79     10      -9.830          0.1815E+06
  13583      1     79     11      -8.740          0.1815E+06
  13584      1     79     12      -7.840          0.1815E+06
  13585      1     79     13      -7.430          0.1815E+06
  13586      1     79     14      -6.730          0.1815E+06
  13587      1     79     15      -6.730          0.1815E+06
  13588      1     79     16      -6.530          0.1815E+06
  13589      1     79     17      -6.130          0.1815E+06
  13590      1     79     18      -5.630          0.1815E+06
  13591      1     79     19      -4.230          0.1815E+06
  13592      1     79     20      -4.230          0.1815E+06
  13593      1     79     21      -4.230          0.1815E+06
  13594      1     79     22      -3.830          0.1815E+06
  13595      1     79     23      -3.430          0.1815E+06
  13596      1     79     24      -2.630          0.1815E+06
  13597      1     79     25     -0.4300          0.1815E+06
  13598      1     79     26     -0.4300          0.1815E+06
  13599      1     79     27      0.4400          0.1815E+06
  13600      1     79     28      0.4400          0.1815E+06
  13601      1     79     29       3.460          0.1815E+06
  13602      1     79     30       4.460          0.1815E+06
  13603      1     79     31       5.470          0.1815E+06
  13604      1     79     32       5.470          0.1815E+06
  13605      1     79     33       5.960          0.1815E+06
  13606      1     79     34       4.470          0.1815E+06
  13607      1     79     35       4.470          0.1815E+06
  13608      1     79     36       3.480          0.1815E+06
  13609      1     79     37       4.480          0.1815E+06
  13610      1     79     38       4.480          0.1815E+06
  13611      1     79     39       8.850          0.1815E+06
  13612      1     79     40       8.340          0.1815E+06
  13613      1     79     41       5.490          0.1815E+06
  13614      1     79     42       3.490          0.1815E+06
  13615      1     79     43       4.820          0.1815E+06
  13616      1     79     44       7.760          0.1815E+06
  13617      1     79     45       6.070          0.1815E+06
  13618      1     79     46       6.110          0.1815E+06
  13619      1     79     47       6.070          0.1815E+06
  13620      1     79     48       8.000          0.1815E+06
  13621      1     79     49       8.000          0.1815E+06
  13622      1     79     50       7.500          0.1815E+06
  13623      1     79     51       7.500          0.1815E+06
  13624      1     79     52       10.92          0.1815E+06
  13625      1     79     53       14.23          0.1815E+06
  13626      1     79     54       14.64          0.1815E+06
  13627      1     79     55       15.00          0.1815E+06
  13628      1     79     56       14.82          0.1815E+06
  13629      1     79     57       14.67          0.1815E+06
  13630      1     79     58       15.01          0.1815E+06
  13631      1     79     59       15.00          0.1815E+06
  13632      1     79     60       14.75          0.1815E+06
  13633      1     79     61       14.51          0.1815E+06
  13634      1     79     62       14.47          0.1815E+06
  13635      1     79     63       14.60          0.1815E+06
  13636      1     79     64       15.97          0.1815E+06
  13637      1     79     65       16.45          0.1815E+06
  13638      1     79     66       16.63          0.1815E+06
  13639      1     79     67       16.68          0.1815E+06
  13640      1     79     68       18.21          0.1815E+06
  13641      1     79     69       20.52          0.1815E+06
  13642      1     79     70       24.94          0.1815E+06
  13643      1     79     71       29.61          0.1815E+06
  13644      1     79     72       34.36          0.1815E+06
  13645      1     79     73       34.49          0.1815E+06
  13646      1     79     74       34.61          0.1815E+06
  13647      1     79     75       35.52          0.1815E+06
  13648      1     79     76       36.11          0.1815E+06
  13649      1     79     77       36.40          0.1815E+06
  13650      1     79     78       36.68          0.1815E+06
  13651      1     79     79       36.81          0.1815E+06
  13652      1     79     80       36.59          0.1815E+06
  13653      1     79     81       35.88          0.1815E+06
  13654      1     79     82       35.13          0.1815E+06
  13655      1     79     83       34.88          0.1815E+06
  13656      1     79     84       35.41          0.1815E+06
  13657      1     79     85       35.40          0.1815E+06
  13658      1     79     86       33.90          0.1815E+06
  13659      1     79     87       31.00          0.1815E+06
  13660      1     79     88       28.30          0.1815E+06
  13661      1     79     89       30.80          0.1815E+06
  13662      1     79     90       37.20          0.1815E+06
  13663      1     79     91       37.70          0.1815E+06
  13664      1     79     92       36.20          0.1815E+06
  13665      1     79     93       35.60          0.1815E+06
  13666      1     79     94       35.90          0.1815E+06
  13667      1     79     95       36.10          0.1815E+06
  13668      1     79     96       35.80          0.1815E+06
  13669      1     79     97       34.50          0.1815E+06
  13670      1     79     98       33.70          0.1815E+06
  13671      1     79     99       32.70          0.1815E+06
  13672      1     79    100       31.50          0.1815E+06
  13673      1     79    101       30.30          0.1815E+06
  13674      1     79    102       29.90          0.1815E+06
  13675      1     79    103       30.40          0.1815E+06
  13676      1     79    104       30.80          0.1815E+06
  13677      1     79    105       31.60          0.1815E+06
  13678      1     79    106       32.10          0.1815E+06
  13679      1     79    107       31.30          0.1815E+06
  13680      1     79    108       30.00          0.1815E+06
  13681      1     79    109       28.30          0.1815E+06
  13682      1     79    110       25.80          0.1815E+06
  13683      1     79    111       23.90          0.1815E+06
  13684      1     79    112       24.40          0.1815E+06
  13685      1     79    113       26.00          0.1815E+06
  13686      1     79    114       28.20          0.1815E+06
  13687      1     79    115       30.50          0.1815E+06
  13688      1     79    116       32.30          0.1815E+06
  13689      1     79    117       33.60          0.1815E+06
  13690      1     79    118       34.10          0.1815E+06
  13691      1     79    119       34.10          0.1815E+06
  13692      1     79    120       34.70          0.1815E+06
  13693      1     79    121       35.80          0.1815E+06
  13694      1     79    122       36.40          0.1815E+06
  13695      1     79    123       36.00          0.1815E+06
  13696      1     79    124       35.70          0.1815E+06
  13697      1     79    125       35.40          0.1815E+06
  13698      1     79    126       35.60          0.1815E+06
  13699      1     79    127       36.30          0.1815E+06
  13700      1     79    128       37.00          0.1815E+06
  13701      1     79    129       37.50          0.1815E+06
  13702      1     79    130       37.90          0.1815E+06
  13703      1     79    131       38.80          0.1815E+06
  13704      1     79    132       39.00          0.1815E+06
  13705      1     79    133       39.90          0.1815E+06
  13706      1     79    134       40.90          0.1815E+06
  13707      1     79    135       42.40          0.1815E+06
  13708      1     79    136       44.50          0.1815E+06
  13709      1     79    137       46.70          0.1815E+06
  13710      1     79    138       49.80          0.1815E+06
  13711      1     79    139       53.30          0.1815E+06
  13712      1     79    140       56.90          0.1815E+06
  13713      1     79    141       60.00          0.1815E+06
  13714      1     79    142       61.20          0.1815E+06
  13715      1     79    143       62.20          0.1815E+06
  13716      1     79    144       63.00          0.1815E+06
  13717      1     79    145       63.40          0.1815E+06
  13718      1     79    146       63.00          0.1815E+06
  13719      1     79    147       62.50          0.1815E+06
  13720      1     79    148       61.40          0.1815E+06
  13721      1     79    149       59.70          0.1815E+06
  13722      1     79    150       58.20          0.1815E+06
  13723      1     79    151       55.90          0.1815E+06
  13724      1     79    152       54.40          0.1815E+06
  13725      1     79    153       53.20          0.1815E+06
  13726      1     79    154       50.60          0.1815E+06
  13727      1     79    155       47.80          0.1815E+06
  13728      1     79    156       45.10          0.1815E+06
  13729      1     79    157       44.10          0.1815E+06
  13730      1     79    158       43.20          0.1815E+06
  13731      1     79    159       42.80          0.1815E+06
  13732      1     79    160       42.80          0.1815E+06
  13733      1     79    161       42.40          0.1815E+06
  13734      1     79    162       42.00          0.1815E+06
  13735      1     79    163       40.90          0.1815E+06
  13736      1     79    164       40.30          0.1815E+06
  13737      1     79    165       39.10          0.1815E+06
  13738      1     79    166       36.70          0.1815E+06
  13739      1     79    167       36.80          0.1815E+06
  13740      1     79    168       40.20          0.1815E+06
  13741      1     79    169       42.80          0.1815E+06
  13742      1     79    170       44.00          0.1815E+06
  13743      1     79    171       44.80          0.1815E+06
  13744      1     79    172       47.00          0.1815E+06
  13745      1     79    173       49.10          0.1815E+06
  13746      1     79    174       52.10          0.1815E+06
  13747      1     80      1      -11.79          0.1815E+06
  13748      1     80      2      -11.54          0.1815E+06
  13749      1     80      3      -11.54          0.1815E+06
  13750      1     80      4      -10.74          0.1815E+06
  13751      1     80      5      -10.94          0.1815E+06
  13752      1     80      6      -10.94          0.1815E+06
  13753      1     80      7      -10.64          0.1815E+06
  13754      1     80      8      -10.74          0.1815E+06
  13755      1     80      9      -10.74          0.1815E+06
  13756      1     80     10      -9.830          0.1815E+06
  13757      1     80     11      -8.740          0.1815E+06
  13758      1     80     12      -7.840          0.1815E+06
  13759      1     80     13      -7.140          0.1815E+06
  13760      1     80     14      -7.140          0.1815E+06
  13761      1     80     15      -7.140          0.1815E+06
  13762      1     80     16      -6.840          0.1815E+06
  13763      1     80     17      -6.340          0.1815E+06
  13764      1     80     18      -5.670          0.1815E+06
  13765      1     80     19      -5.000          0.1815E+06
  13766      1     80     20      -4.610          0.1815E+06
  13767      1     80     21      -4.610          0.1815E+06
  13768      1     80     22      -4.060          0.1815E+06
  13769      1     80     23      -3.570          0.1815E+06
  13770      1     80     24      -2.340          0.1815E+06
  13771      1     80     25     -0.8100          0.1815E+06
  13772      1     80     26     -0.8100          0.1815E+06
  13773      1     80     27      0.4400          0.1815E+06
  13774      1     80     28      0.4500          0.1815E+06
  13775      1     80     29       3.450          0.1815E+06
  13776      1     80     30       4.460          0.1815E+06
  13777      1     80     31       5.460          0.1815E+06
  13778      1     80     32       5.460          0.1815E+06
  13779      1     80     33       5.960          0.1815E+06
  13780      1     80     34       4.470          0.1815E+06
  13781      1     80     35       4.470          0.1815E+06
  13782      1     80     36       3.480          0.1815E+06
  13783      1     80     37       5.470          0.1815E+06
  13784      1     80     38       5.470          0.1815E+06
  13785      1     80     39       11.69          0.1815E+06
  13786      1     80     40       8.780          0.1815E+06
  13787      1     80     41       3.490          0.1815E+06
  13788      1     80     42       3.490          0.1815E+06
  13789      1     80     43       3.580          0.1815E+06
  13790      1     80     44       11.02          0.1815E+06
  13791      1     80     45       9.220          0.1815E+06
  13792      1     80     46       5.920          0.1815E+06
  13793      1     80     47       8.500          0.1815E+06
  13794      1     80     48       7.500          0.1815E+06
  13795      1     80     49       7.500          0.1815E+06
  13796      1     80     50       7.500          0.1815E+06
  13797      1     80     51       7.500          0.1815E+06
  13798      1     80     52       8.500          0.1815E+06
  13799      1     80     53       13.46          0.1815E+06
  13800      1     80     54       14.39          0.1815E+06
  13801      1     80     55       14.78          0.1815E+06
  13802      1     80     56       14.90          0.1815E+06
  13803      1     80     57       14.56          0.1815E+06
  13804      1     80     58       14.42          0.1815E+06
  13805      1     80     59       14.59          0.1815E+06
  13806      1     80     60       14.32          0.1815E+06
  13807      1     80     61       14.02          0.1815E+06
  13808      1     80     62       14.35          0.1815E+06
  13809      1     80     63       15.64          0.1815E+06
  13810      1     80     64       16.13          0.1815E+06
  13811      1     80     65       16.25          0.1815E+06
  13812      1     80     66       16.15          0.1815E+06
  13813      1     80     67       16.79          0.1815E+06
  13814      1     80     68       17.28          0.1815E+06
  13815      1     80     69       19.22          0.1815E+06
  13816      1     80     70       23.19          0.1815E+06
  13817      1     80     71       27.88          0.1815E+06
  13818      1     80     72       32.15          0.1815E+06
  13819      1     80     73       33.88          0.1815E+06
  13820      1     80     74       33.00          0.1815E+06
  13821      1     80     75       34.56          0.1815E+06
  13822      1     80     76       35.45          0.1815E+06
  13823      1     80     77       36.02          0.1815E+06
  13824      1     80     78       36.11          0.1815E+06
  13825      1     80     79       35.40          0.1815E+06
  13826      1     80     80       34.49          0.1815E+06
  13827      1     80     81       34.88          0.1815E+06
  13828      1     80     82       35.38          0.1815E+06
  13829      1     80     83       35.47          0.1815E+06
  13830      1     80     84       35.45          0.1815E+06
  13831      1     80     85       35.50          0.1815E+06
  13832      1     80     86       34.60          0.1815E+06
  13833      1     80     87       29.80          0.1815E+06
  13834      1     80     88       28.00          0.1815E+06
  13835      1     80     89       33.20          0.1815E+06
  13836      1     80     90       37.00          0.1815E+06
  13837      1     80     91       36.90          0.1815E+06
  13838      1     80     92       35.90          0.1815E+06
  13839      1     80     93       35.60          0.1815E+06
  13840      1     80     94       35.90          0.1815E+06
  13841      1     80     95       35.90          0.1815E+06
  13842      1     80     96       35.60          0.1815E+06
  13843      1     80     97       35.50          0.1815E+06
  13844      1     80     98       34.50          0.1815E+06
  13845      1     80     99       33.20          0.1815E+06
  13846      1     80    100       31.90          0.1815E+06
  13847      1     80    101       30.70          0.1815E+06
  13848      1     80    102       29.00          0.1815E+06
  13849      1     80    103       28.80          0.1815E+06
  13850      1     80    104       29.30          0.1815E+06
  13851      1     80    105       30.90          0.1815E+06
  13852      1     80    106       31.60          0.1815E+06
  13853      1     80    107       30.30          0.1815E+06
  13854      1     80    108       28.50          0.1815E+06
  13855      1     80    109       26.40          0.1815E+06
  13856      1     80    110       24.60          0.1815E+06
  13857      1     80    111       24.40          0.1815E+06
  13858      1     80    112       25.40          0.1815E+06
  13859      1     80    113       26.70          0.1815E+06
  13860      1     80    114       29.10          0.1815E+06
  13861      1     80    115       31.70          0.1815E+06
  13862      1     80    116       33.90          0.1815E+06
  13863      1     80    117       34.90          0.1815E+06
  13864      1     80    118       35.10          0.1815E+06
  13865      1     80    119       35.00          0.1815E+06
  13866      1     80    120       35.30          0.1815E+06
  13867      1     80    121       36.10          0.1815E+06
  13868      1     80    122       36.90          0.1815E+06
  13869      1     80    123       37.10          0.1815E+06
  13870      1     80    124       37.20          0.1815E+06
  13871      1     80    125       36.80          0.1815E+06
  13872      1     80    126       36.30          0.1815E+06
  13873      1     80    127       36.70          0.1815E+06
  13874      1     80    128       37.60          0.1815E+06
  13875      1     80    129       38.10          0.1815E+06
  13876      1     80    130       38.50          0.1815E+06
  13877      1     80    131       39.10          0.1815E+06
  13878      1     80    132       39.00          0.1815E+06
  13879      1     80    133       38.90          0.1815E+06
  13880      1     80    134       39.50          0.1815E+06
  13881      1     80    135       40.90          0.1815E+06
  13882      1     80    136       42.70          0.1815E+06
  13883      1     80    137       44.60          0.1815E+06
  13884      1     80    138       47.30          0.1815E+06
  13885      1     80    139       50.40          0.1815E+06
  13886      1     80    140       53.60          0.1815E+06
  13887      1     80    141       56.50          0.1815E+06
  13888      1     80    142       58.30          0.1815E+06
  13889      1     80    143       59.50          0.1815E+06
  13890      1     80    144       61.50          0.1815E+06
  13891      1     80    145       62.80          0.1815E+06
  13892      1     80    146       63.40          0.1815E+06
  13893      1     80    147       62.60          0.1815E+06
  13894      1     80    148       60.70          0.1815E+06
  13895      1     80    149       58.70          0.1815E+06
  13896      1     80    150       56.80          0.1815E+06
  13897      1     80    151       54.60          0.1815E+06
  13898      1     80    152       53.40          0.1815E+06
  13899      1     80    153       52.30          0.1815E+06
  13900      1     80    154       50.80          0.1815E+06
  13901      1     80    155       48.20          0.1815E+06
  13902      1     80    156       46.30          0.1815E+06
  13903      1     80    157       44.60          0.1815E+06
  13904      1     80    158       43.70          0.1815E+06
  13905      1     80    159       43.30          0.1815E+06
  13906      1     80    160       43.00          0.1815E+06
  13907      1     80    161       41.90          0.1815E+06
  13908      1     80    162       40.30          0.1815E+06
  13909      1     80    163       39.90          0.1815E+06
  13910      1     80    164       39.70          0.1815E+06
  13911      1     80    165       38.40          0.1815E+06
  13912      1     80    166       37.20          0.1815E+06
  13913      1     80    167       38.00          0.1815E+06
  13914      1     80    168       40.50          0.1815E+06
  13915      1     80    169       42.90          0.1815E+06
  13916      1     80    170       44.80          0.1815E+06
  13917      1     80    171       46.60          0.1815E+06
  13918      1     80    172       49.30          0.1815E+06
  13919      1     80    173       50.60          0.1815E+06
  13920      1     80    174       55.70          0.1815E+06
  13921      1     81      1      -11.67          0.1815E+06
  13922      1     81      2      -11.65          0.1815E+06
  13923      1     81      3      -11.65          0.1815E+06
  13924      1     81      4      -10.74          0.1815E+06
  13925      1     81      5      -10.94          0.1815E+06
  13926      1     81      6      -10.94          0.1815E+06
  13927      1     81      7      -10.64          0.1815E+06
  13928      1     81      8      -10.24          0.1815E+06
  13929      1     81      9      -10.24          0.1815E+06
  13930      1     81     10      -9.840          0.1815E+06
  13931      1     81     11      -9.040          0.1815E+06
  13932      1     81     12      -8.550          0.1815E+06
  13933      1     81     13      -7.430          0.1815E+06
  13934      1     81     14      -7.280          0.1815E+06
  13935      1     81     15      -7.280          0.1815E+06
  13936      1     81     16      -7.210          0.1815E+06
  13937      1     81     17      -7.040          0.1815E+06
  13938      1     81     18      -6.240          0.1815E+06
  13939      1     81     19      -5.640          0.1815E+06
  13940      1     81     20      -5.040          0.1815E+06
  13941      1     81     21      -5.040          0.1815E+06
  13942      1     81     22      -4.220          0.1815E+06
  13943      1     81     23      -3.150          0.1815E+06
  13944      1     81     24      -2.440          0.1815E+06
  13945      1     81     25      -1.590          0.1815E+06
  13946      1     81     26      -1.590          0.1815E+06
  13947      1     81     27     -0.6900          0.1815E+06
  13948      1     81     28       1.450          0.1815E+06
  13949      1     81     29       3.450          0.1815E+06
  13950      1     81     30       4.460          0.1815E+06
  13951      1     81     31       5.460          0.1815E+06
  13952      1     81     32       5.460          0.1815E+06
  13953      1     81     33       3.970          0.1815E+06
  13954      1     81     34       3.470          0.1815E+06
  13955      1     81     35       3.470          0.1815E+06
  13956      1     81     36       3.480          0.1815E+06
  13957      1     81     37       5.480          0.1815E+06
  13958      1     81     38       5.480          0.1815E+06
  13959      1     81     39       10.53          0.1815E+06
  13960      1     81     40       9.100          0.1815E+06
  13961      1     81     41       2.490          0.1815E+06
  13962      1     81     42       3.490          0.1815E+06
  13963      1     81     43       7.500          0.1815E+06
  13964      1     81     44       7.500          0.1815E+06
  13965      1     81     45       9.490          0.1815E+06
  13966      1     81     46       9.500          0.1815E+06
  13967      1     81     47       9.000          0.1815E+06
  13968      1     81     48       7.500          0.1815E+06
  13969      1     81     49       7.500          0.1815E+06
  13970      1     81     50       7.500          0.1815E+06
  13971      1     81     51       6.500          0.1815E+06
  13972      1     81     52       6.500          0.1815E+06
  13973      1     81     53       10.39          0.1815E+06
  13974      1     81     54       13.59          0.1815E+06
  13975      1     81     55       14.47          0.1815E+06
  13976      1     81     56       14.36          0.1815E+06
  13977      1     81     57       14.22          0.1815E+06
  13978      1     81     58       13.64          0.1815E+06
  13979      1     81     59       14.03          0.1815E+06
  13980      1     81     60       13.11          0.1815E+06
  13981      1     81     61       13.47          0.1815E+06
  13982      1     81     62       14.67          0.1815E+06
  13983      1     81     63       15.43          0.1815E+06
  13984      1     81     64       16.12          0.1815E+06
  13985      1     81     65       16.37          0.1815E+06
  13986      1     81     66       16.31          0.1815E+06
  13987      1     81     67       16.03          0.1815E+06
  13988      1     81     68       16.86          0.1815E+06
  13989      1     81     69       18.13          0.1815E+06
  13990      1     81     70       21.09          0.1815E+06
  13991      1     81     71       25.26          0.1815E+06
  13992      1     81     72       28.71          0.1815E+06
  13993      1     81     73       31.00          0.1815E+06
  13994      1     81     74       32.41          0.1815E+06
  13995      1     81     75       34.34          0.1815E+06
  13996      1     81     76       33.90          0.1815E+06
  13997      1     81     77       33.04          0.1815E+06
  13998      1     81     78       33.38          0.1815E+06
  13999      1     81     79       32.77          0.1815E+06
  14000      1     81     80       34.50          0.1815E+06
  14001      1     81     81       34.77          0.1815E+06
  14002      1     81     82       35.58          0.1815E+06
  14003      1     81     83       34.54          0.1815E+06
  14004      1     81     84       34.93          0.1815E+06
  14005      1     81     85       34.90          0.1815E+06
  14006      1     81     86       32.60          0.1815E+06
  14007      1     81     87       26.60          0.1815E+06
  14008      1     81     88       28.40          0.1815E+06
  14009      1     81     89       33.80          0.1815E+06
  14010      1     81     90       36.00          0.1815E+06
  14011      1     81     91       36.20          0.1815E+06
  14012      1     81     92       35.60          0.1815E+06
  14013      1     81     93       35.50          0.1815E+06
  14014      1     81     94       35.70          0.1815E+06
  14015      1     81     95       35.60          0.1815E+06
  14016      1     81     96       35.80          0.1815E+06
  14017      1     81     97       35.90          0.1815E+06
  14018      1     81     98       35.20          0.1815E+06
  14019      1     81     99       33.80          0.1815E+06
  14020      1     81    100       32.60          0.1815E+06
  14021      1     81    101       31.80          0.1815E+06
  14022      1     81    102       30.10          0.1815E+06
  14023      1     81    103       28.70          0.1815E+06
  14024      1     81    104       29.00          0.1815E+06
  14025      1     81    105       31.10          0.1815E+06
  14026      1     81    106       31.80          0.1815E+06
  14027      1     81    107       29.90          0.1815E+06
  14028      1     81    108       26.60          0.1815E+06
  14029      1     81    109       24.70          0.1815E+06
  14030      1     81    110       24.10          0.1815E+06
  14031      1     81    111       25.30          0.1815E+06
  14032      1     81    112       27.60          0.1815E+06
  14033      1     81    113       28.20          0.1815E+06
  14034      1     81    114       29.70          0.1815E+06
  14035      1     81    115       33.60          0.1815E+06
  14036      1     81    116       35.70          0.1815E+06
  14037      1     81    117       36.10          0.1815E+06
  14038      1     81    118       36.00          0.1815E+06
  14039      1     81    119       35.90          0.1815E+06
  14040      1     81    120       36.30          0.1815E+06
  14041      1     81    121       37.00          0.1815E+06
  14042      1     81    122       37.60          0.1815E+06
  14043      1     81    123       37.80          0.1815E+06
  14044      1     81    124       38.30          0.1815E+06
  14045      1     81    125       38.20          0.1815E+06
  14046      1     81    126       36.90          0.1815E+06
  14047      1     81    127       37.10          0.1815E+06
  14048      1     81    128       38.10          0.1815E+06
  14049      1     81    129       38.60          0.1815E+06
  14050      1     81    130       39.20          0.1815E+06
  14051      1     81    131       40.30          0.1815E+06
  14052      1     81    132       40.10          0.1815E+06
  14053      1     81    133       39.20          0.1815E+06
  14054      1     81    134       39.60          0.1815E+06
  14055      1     81    135       40.60          0.1815E+06
  14056      1     81    136       42.20          0.1815E+06
  14057      1     81    137       44.40          0.1815E+06
  14058      1     81    138       46.40          0.1815E+06
  14059      1     81    139       49.10          0.1815E+06
  14060      1     81    140       52.10          0.1815E+06
  14061      1     81    141       54.70          0.1815E+06
  14062      1     81    142       57.20          0.1815E+06
  14063      1     81    143       59.20          0.1815E+06
  14064      1     81    144       61.30          0.1815E+06
  14065      1     81    145       62.90          0.1815E+06
  14066      1     81    146       63.40          0.1815E+06
  14067      1     81    147       62.70          0.1815E+06
  14068      1     81    148       61.50          0.1815E+06
  14069      1     81    149       60.20          0.1815E+06
  14070      1     81    150       58.20          0.1815E+06
  14071      1     81    151       55.50          0.1815E+06
  14072      1     81    152       53.10          0.1815E+06
  14073      1     81    153       51.40          0.1815E+06
  14074      1     81    154       49.90          0.1815E+06
  14075      1     81    155       48.10          0.1815E+06
  14076      1     81    156       46.10          0.1815E+06
  14077      1     81    157       44.70          0.1815E+06
  14078      1     81    158       44.20          0.1815E+06
  14079      1     81    159       43.80          0.1815E+06
  14080      1     81    160       43.30          0.1815E+06
  14081      1     81    161       42.30          0.1815E+06
  14082      1     81    162       41.20          0.1815E+06
  14083      1     81    163       40.50          0.1815E+06
  14084      1     81    164       39.60          0.1815E+06
  14085      1     81    165       38.70          0.1815E+06
  14086      1     81    166       37.70          0.1815E+06
  14087      1     81    167       38.60          0.1815E+06
  14088      1     81    168       41.20          0.1815E+06
  14089      1     81    169       42.80          0.1815E+06
  14090      1     81    170       44.50          0.1815E+06
  14091      1     81    171       46.50          0.1815E+06
  14092      1     81    172       49.20          0.1815E+06
  14093      1     81    173       50.40          0.1815E+06
  14094      1     81    174       56.10          0.1815E+06
  14095      1     82      1      -11.67          0.1815E+06
  14096      1     82      2      -11.65          0.1815E+06
  14097      1     82      3      -11.65          0.1815E+06
  14098      1     82      4      -11.30          0.1815E+06
  14099      1     82      5      -11.15          0.1815E+06
  14100      1     82      6      -11.04          0.1815E+06
  14101      1     82      7      -10.84          0.1815E+06
  14102      1     82      8      -9.850          0.1815E+06
  14103      1     82      9      -9.850          0.1815E+06
  14104      1     82     10      -9.870          0.1815E+06
  14105      1     82     11      -9.740          0.1815E+06
  14106      1     82     12      -9.540          0.1815E+06
  14107      1     82     13      -7.740          0.1815E+06
  14108      1     82     14      -7.340          0.1815E+06
  14109      1     82     15      -7.340          0.1815E+06
  14110      1     82     16      -7.340          0.1815E+06
  14111      1     82     17      -6.940          0.1815E+06
  14112      1     82     18      -6.280          0.1815E+06
  14113      1     82     19      -5.890          0.1815E+06
  14114      1     82     20      -5.280          0.1815E+06
  14115      1     82     21      -5.280          0.1815E+06
  14116      1     82     22      -4.160          0.1815E+06
  14117      1     82     23      -3.290          0.1815E+06
  14118      1     82     24      -2.440          0.1815E+06
  14119      1     82     25      -1.590          0.1815E+06
  14120      1     82     26      -1.590          0.1815E+06
  14121      1     82     27     -0.6900          0.1815E+06
  14122      1     82     28       1.450          0.1815E+06
  14123      1     82     29       2.460          0.1815E+06
  14124      1     82     30       3.460          0.1815E+06
  14125      1     82     31       3.460          0.1815E+06
  14126      1     82     32       3.460          0.1815E+06
  14127      1     82     33       2.470          0.1815E+06
  14128      1     82     34       3.470          0.1815E+06
  14129      1     82     35       3.470          0.1815E+06
  14130      1     82     36       3.470          0.1815E+06
  14131      1     82     37       6.690          0.1815E+06
  14132      1     82     38       10.78          0.1815E+06
  14133      1     82     39       10.14          0.1815E+06
  14134      1     82     40       7.490          0.1815E+06
  14135      1     82     41       2.500          0.1815E+06
  14136      1     82     42       6.500          0.1815E+06
  14137      1     82     43       7.500          0.1815E+06
  14138      1     82     44       7.500          0.1815E+06
  14139      1     82     45       7.500          0.1815E+06
  14140      1     82     46       8.000          0.1815E+06
  14141      1     82     47       7.500          0.1815E+06
  14142      1     82     48       7.500          0.1815E+06
  14143      1     82     49       7.500          0.1815E+06
  14144      1     82     50       7.500          0.1815E+06
  14145      1     82     51       6.500          0.1815E+06
  14146      1     82     52       5.500          0.1815E+06
  14147      1     82     53       6.940          0.1815E+06
  14148      1     82     54       9.430          0.1815E+06
  14149      1     82     55       13.43          0.1815E+06
  14150      1     82     56       10.60          0.1815E+06
  14151      1     82     57       13.72          0.1815E+06
  14152      1     82     58       12.77          0.1815E+06
  14153      1     82     59       13.27          0.1815E+06
  14154      1     82     60       13.06          0.1815E+06
  14155      1     82     61       14.53          0.1815E+06
  14156      1     82     62       15.56          0.1815E+06
  14157      1     82     63       15.30          0.1815E+06
  14158      1     82     64       16.02          0.1815E+06
  14159      1     82     65       16.27          0.1815E+06
  14160      1     82     66       15.85          0.1815E+06
  14161      1     82     67       16.30          0.1815E+06
  14162      1     82     68       16.38          0.1815E+06
  14163      1     82     69       17.23          0.1815E+06
  14164      1     82     70       19.27          0.1815E+06
  14165      1     82     71       22.27          0.1815E+06
  14166      1     82     72       24.86          0.1815E+06
  14167      1     82     73       29.85          0.1815E+06
  14168      1     82     74       32.06          0.1815E+06
  14169      1     82     75       32.50          0.1815E+06
  14170      1     82     76       31.12          0.1815E+06
  14171      1     82     77       31.56          0.1815E+06
  14172      1     82     78       30.55          0.1815E+06
  14173      1     82     79       32.29          0.1815E+06
  14174      1     82     80       34.11          0.1815E+06
  14175      1     82     81       33.09          0.1815E+06
  14176      1     82     82       33.22          0.1815E+06
  14177      1     82     83       32.95          0.1815E+06
  14178      1     82     84       32.97          0.1815E+06
  14179      1     82     85       33.60          0.1815E+06
  14180      1     82     86       30.40          0.1815E+06
  14181      1     82     87       24.80          0.1815E+06
  14182      1     82     88       26.90          0.1815E+06
  14183      1     82     89       32.80          0.1815E+06
  14184      1     82     90       34.90          0.1815E+06
  14185      1     82     91       35.10          0.1815E+06
  14186      1     82     92       35.20          0.1815E+06
  14187      1     82     93       34.70          0.1815E+06
  14188      1     82     94       34.40          0.1815E+06
  14189      1     82     95       35.20          0.1815E+06
  14190      1     82     96       35.70          0.1815E+06
  14191      1     82     97       35.50          0.1815E+06
  14192      1     82     98       35.20          0.1815E+06
  14193      1     82     99       34.10          0.1815E+06
  14194      1     82    100       33.00          0.1815E+06
  14195      1     82    101       32.10          0.1815E+06
  14196      1     82    102       30.80          0.1815E+06
  14197      1     82    103       28.80          0.1815E+06
  14198      1     82    104       28.80          0.1815E+06
  14199      1     82    105       31.40          0.1815E+06
  14200      1     82    106       31.60          0.1815E+06
  14201      1     82    107       28.70          0.1815E+06
  14202      1     82    108       24.40          0.1815E+06
  14203      1     82    109       23.30          0.1815E+06
  14204      1     82    110       24.10          0.1815E+06
  14205      1     82    111       27.00          0.1815E+06
  14206      1     82    112       30.20          0.1815E+06
  14207      1     82    113       30.80          0.1815E+06
  14208      1     82    114       29.10          0.1815E+06
  14209      1     82    115       33.50          0.1815E+06
  14210      1     82    116       36.30          0.1815E+06
  14211      1     82    117       36.60          0.1815E+06
  14212      1     82    118       36.30          0.1815E+06
  14213      1     82    119       36.30          0.1815E+06
  14214      1     82    120       36.60          0.1815E+06
  14215      1     82    121       37.40          0.1815E+06
  14216      1     82    122       37.90          0.1815E+06
  14217      1     82    123       38.20          0.1815E+06
  14218      1     82    124       38.50          0.1815E+06
  14219      1     82    125       38.50          0.1815E+06
  14220      1     82    126       37.40          0.1815E+06
  14221      1     82    127       37.70          0.1815E+06
  14222      1     82    128       38.40          0.1815E+06
  14223      1     82    129       38.70          0.1815E+06
  14224      1     82    130       39.30          0.1815E+06
  14225      1     82    131       40.70          0.1815E+06
  14226      1     82    132       41.10          0.1815E+06
  14227      1     82    133       40.40          0.1815E+06
  14228      1     82    134       40.00          0.1815E+06
  14229      1     82    135       40.80          0.1815E+06
  14230      1     82    136       42.60          0.1815E+06
  14231      1     82    137       44.60          0.1815E+06
  14232      1     82    138       46.90          0.1815E+06
  14233      1     82    139       49.90          0.1815E+06
  14234      1     82    140       53.30          0.1815E+06
  14235      1     82    141       56.20          0.1815E+06
  14236      1     82    142       58.30          0.1815E+06
  14237      1     82    143       60.40          0.1815E+06
  14238      1     82    144       62.00          0.1815E+06
  14239      1     82    145       63.20          0.1815E+06
  14240      1     82    146       63.70          0.1815E+06
  14241      1     82    147       63.40          0.1815E+06
  14242      1     82    148       62.50          0.1815E+06
  14243      1     82    149       61.20          0.1815E+06
  14244      1     82    150       59.00          0.1815E+06
  14245      1     82    151       55.90          0.1815E+06
  14246      1     82    152       52.70          0.1815E+06
  14247      1     82    153       50.30          0.1815E+06
  14248      1     82    154       48.80          0.1815E+06
  14249      1     82    155       47.70          0.1815E+06
  14250      1     82    156       46.50          0.1815E+06
  14251      1     82    157       45.20          0.1815E+06
  14252      1     82    158       44.50          0.1815E+06
  14253      1     82    159       44.10          0.1815E+06
  14254      1     82    160       43.70          0.1815E+06
  14255      1     82    161       43.20          0.1815E+06
  14256      1     82    162       42.50          0.1815E+06
  14257      1     82    163       41.60          0.1815E+06
  14258      1     82    164       41.10          0.1815E+06
  14259      1     82    165       40.30          0.1815E+06
  14260      1     82    166       38.50          0.1815E+06
  14261      1     82    167       38.50          0.1815E+06
  14262      1     82    168       40.40          0.1815E+06
  14263      1     82    169       42.20          0.1815E+06
  14264      1     82    170       43.70          0.1815E+06
  14265      1     82    171       44.70          0.1815E+06
  14266      1     82    172       48.40          0.1815E+06
  14267      1     82    173       51.50          0.1815E+06
  14268      1     82    174       56.60          0.1815E+06
  14269      1     83      1      -11.67          0.1815E+06
  14270      1     83      2      -11.65          0.1815E+06
  14271      1     83      3      -11.65          0.1815E+06
  14272      1     83      4      -11.30          0.1815E+06
  14273      1     83      5      -11.15          0.1815E+06
  14274      1     83      6      -11.04          0.1815E+06
  14275      1     83      7      -10.84          0.1815E+06
  14276      1     83      8      -9.850          0.1815E+06
  14277      1     83      9      -9.850          0.1815E+06
  14278      1     83     10      -9.870          0.1815E+06
  14279      1     83     11      -9.740          0.1815E+06
  14280      1     83     12      -9.540          0.1815E+06
  14281      1     83     13      -7.740          0.1815E+06
  14282      1     83     14      -7.340          0.1815E+06
  14283      1     83     15      -7.340          0.1815E+06
  14284      1     83     16      -7.340          0.1815E+06
  14285      1     83     17      -6.940          0.1815E+06
  14286      1     83     18      -6.280          0.1815E+06
  14287      1     83     19      -5.890          0.1815E+06
  14288      1     83     20      -5.280          0.1815E+06
  14289      1     83     21      -5.280          0.1815E+06
  14290      1     83     22      -4.160          0.1815E+06
  14291      1     83     23      -3.290          0.1815E+06
  14292      1     83     24      -2.440          0.1815E+06
  14293      1     83     25      -1.590          0.1815E+06
  14294      1     83     26      -1.590          0.1815E+06
  14295      1     83     27     -0.6900          0.1815E+06
  14296      1     83     28       1.450          0.1815E+06
  14297      1     83     29       2.460          0.1815E+06
  14298      1     83     30       3.460          0.1815E+06
  14299      1     83     31       3.460          0.1815E+06
  14300      1     83     32       3.460          0.1815E+06
  14301      1     83     33       2.470          0.1815E+06
  14302      1     83     34       3.470          0.1815E+06
  14303      1     83     35       3.470          0.1815E+06
  14304      1     83     36       3.470          0.1815E+06
  14305      1     83     37       8.770          0.1815E+06
  14306      1     83     38       11.53          0.1815E+06
  14307      1     83     39       10.26          0.1815E+06
  14308      1     83     40       7.490          0.1815E+06
  14309      1     83     41       2.500          0.1815E+06
  14310      1     83     42       6.500          0.1815E+06
  14311      1     83     43       7.500          0.1815E+06
  14312      1     83     44       7.500          0.1815E+06
  14313      1     83     45       7.500          0.1815E+06
  14314      1     83     46       8.000          0.1815E+06
  14315      1     83     47       7.500          0.1815E+06
  14316      1     83     48       7.500          0.1815E+06
  14317      1     83     49       7.500          0.1815E+06
  14318      1     83     50       7.500          0.1815E+06
  14319      1     83     51       6.500          0.1815E+06
  14320      1     83     52       5.500          0.1815E+06
  14321      1     83     53       5.690          0.1815E+06
  14322      1     83     54       6.760          0.1815E+06
  14323      1     83     55       9.060          0.1815E+06
  14324      1     83     56       12.01          0.1815E+06
  14325      1     83     57       10.68          0.1815E+06
  14326      1     83     58       11.39          0.1815E+06
  14327      1     83     59       10.65          0.1815E+06
  14328      1     83     60       13.35          0.1815E+06
  14329      1     83     61       14.39          0.1815E+06
  14330      1     83     62       14.97          0.1815E+06
  14331      1     83     63       14.97          0.1815E+06
  14332      1     83     64       15.23          0.1815E+06
  14333      1     83     65       15.61          0.1815E+06
  14334      1     83     66       16.04          0.1815E+06
  14335      1     83     67       15.46          0.1815E+06
  14336      1     83     68       16.35          0.1815E+06
  14337      1     83     69       16.96          0.1815E+06
  14338      1     83     70       18.71          0.1815E+06
  14339      1     83     71       20.12          0.1815E+06
  14340      1     83     72       22.88          0.1815E+06
  14341      1     83     73       28.73          0.1815E+06
  14342      1     83     74       29.61          0.1815E+06
  14343      1     83     75       28.70          0.1815E+06
  14344      1     83     76       28.05          0.1815E+06
  14345      1     83     77       29.81          0.1815E+06
  14346      1     83     78       28.62          0.1815E+06
  14347      1     83     79       31.20          0.1815E+06
  14348      1     83     80       31.69          0.1815E+06
  14349      1     83     81       31.60          0.1815E+06
  14350      1     83     82       31.78          0.1815E+06
  14351      1     83     83       31.97          0.1815E+06
  14352      1     83     84       31.86          0.1815E+06
  14353      1     83     85       31.70          0.1815E+06
  14354      1     83     86       30.40          0.1815E+06
  14355      1     83     87       25.20          0.1815E+06
  14356      1     83     88       26.10          0.1815E+06
  14357      1     83     89       31.10          0.1815E+06
  14358      1     83     90       32.60          0.1815E+06
  14359      1     83     91       33.80          0.1815E+06
  14360      1     83     92       33.90          0.1815E+06
  14361      1     83     93       33.50          0.1815E+06
  14362      1     83     94       33.30          0.1815E+06
  14363      1     83     95       34.10          0.1815E+06
  14364      1     83     96       34.80          0.1815E+06
  14365      1     83     97       35.00          0.1815E+06
  14366      1     83     98       34.70          0.1815E+06
  14367      1     83     99       33.80          0.1815E+06
  14368      1     83    100       32.90          0.1815E+06
  14369      1     83    101       32.20          0.1815E+06
  14370      1     83    102       31.00          0.1815E+06
  14371      1     83    103       28.00          0.1815E+06
  14372      1     83    104       27.50          0.1815E+06
  14373      1     83    105       30.70          0.1815E+06
  14374      1     83    106       30.10          0.1815E+06
  14375      1     83    107       26.20          0.1815E+06
  14376      1     83    108       22.80          0.1815E+06
  14377      1     83    109       23.20          0.1815E+06
  14378      1     83    110       25.60          0.1815E+06
  14379      1     83    111       29.40          0.1815E+06
  14380      1     83    112       32.20          0.1815E+06
  14381      1     83    113       32.70          0.1815E+06
  14382      1     83    114       31.60          0.1815E+06
  14383      1     83    115       30.50          0.1815E+06
  14384      1     83    116       33.70          0.1815E+06
  14385      1     83    117       35.40          0.1815E+06
  14386      1     83    118       35.70          0.1815E+06
  14387      1     83    119       35.90          0.1815E+06
  14388      1     83    120       36.40          0.1815E+06
  14389      1     83    121       37.20          0.1815E+06
  14390      1     83    122       38.10          0.1815E+06
  14391      1     83    123       38.40          0.1815E+06
  14392      1     83    124       38.50          0.1815E+06
  14393      1     83    125       38.50          0.1815E+06
  14394      1     83    126       38.10          0.1815E+06
  14395      1     83    127       38.20          0.1815E+06
  14396      1     83    128       38.60          0.1815E+06
  14397      1     83    129       38.80          0.1815E+06
  14398      1     83    130       39.40          0.1815E+06
  14399      1     83    131       40.70          0.1815E+06
  14400      1     83    132       41.80          0.1815E+06
  14401      1     83    133       42.10          0.1815E+06
  14402      1     83    134       41.50          0.1815E+06
  14403      1     83    135       41.30          0.1815E+06
  14404      1     83    136       43.10          0.1815E+06
  14405      1     83    137       45.40          0.1815E+06
  14406      1     83    138       48.10          0.1815E+06
  14407      1     83    139       51.30          0.1815E+06
  14408      1     83    140       55.00          0.1815E+06
  14409      1     83    141       57.80          0.1815E+06
  14410      1     83    142       60.10          0.1815E+06
  14411      1     83    143       62.00          0.1815E+06
  14412      1     83    144       63.30          0.1815E+06
  14413      1     83    145       64.00          0.1815E+06
  14414      1     83    146       64.50          0.1815E+06
  14415      1     83    147       64.40          0.1815E+06
  14416      1     83    148       63.20          0.1815E+06
  14417      1     83    149       61.60          0.1815E+06
  14418      1     83    150       59.00          0.1815E+06
  14419      1     83    151       55.40          0.1815E+06
  14420      1     83    152       52.20          0.1815E+06
  14421      1     83    153       49.70          0.1815E+06
  14422      1     83    154       48.80          0.1815E+06
  14423      1     83    155       48.30          0.1815E+06
  14424      1     83    156       47.30          0.1815E+06
  14425      1     83    157       46.10          0.1815E+06
  14426      1     83    158       45.00          0.1815E+06
  14427      1     83    159       44.80          0.1815E+06
  14428      1     83    160       44.60          0.1815E+06
  14429      1     83    161       44.50          0.1815E+06
  14430      1     83    162       43.90          0.1815E+06
  14431      1     83    163       43.00          0.1815E+06
  14432      1     83    164       41.80          0.1815E+06
  14433      1     83    165       40.10          0.1815E+06
  14434      1     83    166       38.90          0.1815E+06
  14435      1     83    167       38.60          0.1815E+06
  14436      1     83    168       39.80          0.1815E+06
  14437      1     83    169       41.30          0.1815E+06
  14438      1     83    170       43.10          0.1815E+06
  14439      1     83    171       45.30          0.1815E+06
  14440      1     83    172       48.70          0.1815E+06
  14441      1     83    173       50.40          0.1815E+06
  14442      1     83    174       57.00          0.1815E+06
  14443      1     84      1      -11.75          0.1815E+06
  14444      1     84      2      -11.75          0.1815E+06
  14445      1     84      3      -11.75          0.1815E+06
  14446      1     84      4      -11.75          0.1815E+06
  14447      1     84      5      -11.65          0.1815E+06
  14448      1     84      6      -10.95          0.1815E+06
  14449      1     84      7      -10.15          0.1815E+06
  14450      1     84      8      -9.950          0.1815E+06
  14451      1     84      9      -9.950          0.1815E+06
  14452      1     84     10      -9.950          0.1815E+06
  14453      1     84     11      -9.750          0.1815E+06
  14454      1     84     12      -9.560          0.1815E+06
  14455      1     84     13      -8.110          0.1815E+06
  14456      1     84     14      -7.660          0.1815E+06
  14457      1     84     15      -7.660          0.1815E+06
  14458      1     84     16      -7.250          0.1815E+06
  14459      1     84     17      -6.800          0.1815E+06
  14460      1     84     18      -6.100          0.1815E+06
  14461      1     84     19      -5.890          0.1815E+06
  14462      1     84     20      -5.280          0.1815E+06
  14463      1     84     21      -5.280          0.1815E+06
  14464      1     84     22      -4.160          0.1815E+06
  14465      1     84     23      -3.290          0.1815E+06
  14466      1     84     24      -2.780          0.1815E+06
  14467      1     84     25      -2.330          0.1815E+06
  14468      1     84     26      -2.330          0.1815E+06
  14469      1     84     27      -1.850          0.1815E+06
  14470      1     84     28      0.4500          0.1815E+06
  14471      1     84     29       1.450          0.1815E+06
  14472      1     84     30       2.450          0.1815E+06
  14473      1     84     31       2.460          0.1815E+06
  14474      1     84     32       2.460          0.1815E+06
  14475      1     84     33       2.460          0.1815E+06
  14476      1     84     34       2.470          0.1815E+06
  14477      1     84     35       2.480          0.1815E+06
  14478      1     84     36       3.480          0.1815E+06
  14479      1     84     37       8.820          0.1815E+06
  14480      1     84     38       12.56          0.1815E+06
  14481      1     84     39       9.280          0.1815E+06
  14482      1     84     40       3.230          0.1815E+06
  14483      1     84     41       2.490          0.1815E+06
  14484      1     84     42       5.490          0.1815E+06
  14485      1     84     43       7.500          0.1815E+06
  14486      1     84     44       7.500          0.1815E+06
  14487      1     84     45       7.500          0.1815E+06
  14488      1     84     46       8.000          0.1815E+06
  14489      1     84     47       7.500          0.1815E+06
  14490      1     84     48       7.500          0.1815E+06
  14491      1     84     49       7.500          0.1815E+06
  14492      1     84     50       6.500          0.1815E+06
  14493      1     84     51       5.510          0.1815E+06
  14494      1     84     52       5.510          0.1815E+06
  14495      1     84     53       6.510          0.1815E+06
  14496      1     84     54       7.510          0.1815E+06
  14497      1     84     55       7.510          0.1815E+06
  14498      1     84     56       8.510          0.1815E+06
  14499      1     84     57       8.780          0.1815E+06
  14500      1     84     58       8.680          0.1815E+06
  14501      1     84     59       10.71          0.1815E+06
  14502      1     84     60       12.77          0.1815E+06
  14503      1     84     61       13.88          0.1815E+06
  14504      1     84     62       14.46          0.1815E+06
  14505      1     84     63       14.77          0.1815E+06
  14506      1     84     64       14.64          0.1815E+06
  14507      1     84     65       15.39          0.1815E+06
  14508      1     84     66       15.31          0.1815E+06
  14509      1     84     67       15.02          0.1815E+06
  14510      1     84     68       15.97          0.1815E+06
  14511      1     84     69       16.06          0.1815E+06
  14512      1     84     70       17.19          0.1815E+06
  14513      1     84     71       18.23          0.1815E+06
  14514      1     84     72       19.27          0.1815E+06
  14515      1     84     73       23.34          0.1815E+06
  14516      1     84     74       24.78          0.1815E+06
  14517      1     84     75       24.04          0.1815E+06
  14518      1     84     76       25.26          0.1815E+06
  14519      1     84     77       25.95          0.1815E+06
  14520      1     84     78       28.04          0.1815E+06
  14521      1     84     79       29.93          0.1815E+06
  14522      1     84     80       30.09          0.1815E+06
  14523      1     84     81       29.64          0.1815E+06
  14524      1     84     82       29.37          0.1815E+06
  14525      1     84     83       29.34          0.1815E+06
  14526      1     84     84       28.77          0.1815E+06
  14527      1     84     85       30.28          0.1815E+06
  14528      1     84     86       30.10          0.1815E+06
  14529      1     84     87       25.00          0.1815E+06
  14530      1     84     88       24.80          0.1815E+06
  14531      1     84     89       30.20          0.1815E+06
  14532      1     84     90       32.00          0.1815E+06
  14533      1     84     91       32.90          0.1815E+06
  14534      1     84     92       32.60          0.1815E+06
  14535      1     84     93       32.10          0.1815E+06
  14536      1     84     94       32.30          0.1815E+06
  14537      1     84     95       33.20          0.1815E+06
  14538      1     84     96       34.10          0.1815E+06
  14539      1     84     97       34.30          0.1815E+06
  14540      1     84     98       34.00          0.1815E+06
  14541      1     84     99       33.20          0.1815E+06
  14542      1     84    100       32.50          0.1815E+06
  14543      1     84    101       31.80          0.1815E+06
  14544      1     84    102       30.80          0.1815E+06
  14545      1     84    103       27.90          0.1815E+06
  14546      1     84    104       25.00          0.1815E+06
  14547      1     84    105       27.30          0.1815E+06
  14548      1     84    106       27.10          0.1815E+06
  14549      1     84    107       23.20          0.1815E+06
  14550      1     84    108       21.70          0.1815E+06
  14551      1     84    109       24.50          0.1815E+06
  14552      1     84    110       28.40          0.1815E+06
  14553      1     84    111       32.00          0.1815E+06
  14554      1     84    112       34.60          0.1815E+06
  14555      1     84    113       35.20          0.1815E+06
  14556      1     84    114       35.10          0.1815E+06
  14557      1     84    115       32.40          0.1815E+06
  14558      1     84    116       30.20          0.1815E+06
  14559      1     84    117       31.30          0.1815E+06
  14560      1     84    118       34.10          0.1815E+06
  14561      1     84    119       35.20          0.1815E+06
  14562      1     84    120       36.50          0.1815E+06
  14563      1     84    121       37.30          0.1815E+06
  14564      1     84    122       38.10          0.1815E+06
  14565      1     84    123       38.70          0.1815E+06
  14566      1     84    124       38.80          0.1815E+06
  14567      1     84    125       38.70          0.1815E+06
  14568      1     84    126       38.60          0.1815E+06
  14569      1     84    127       38.60          0.1815E+06
  14570      1     84    128       38.80          0.1815E+06
  14571      1     84    129       38.90          0.1815E+06
  14572      1     84    130       39.40          0.1815E+06
  14573      1     84    131       40.90          0.1815E+06
  14574      1     84    132       42.50          0.1815E+06
  14575      1     84    133       43.60          0.1815E+06
  14576      1     84    134       44.00          0.1815E+06
  14577      1     84    135       42.50          0.1815E+06
  14578      1     84    136       43.70          0.1815E+06
  14579      1     84    137       46.30          0.1815E+06
  14580      1     84    138       49.60          0.1815E+06
  14581      1     84    139       52.40          0.1815E+06
  14582      1     84    140       55.40          0.1815E+06
  14583      1     84    141       58.70          0.1815E+06
  14584      1     84    142       61.60          0.1815E+06
  14585      1     84    143       63.70          0.1815E+06
  14586      1     84    144       65.00          0.1815E+06
  14587      1     84    145       65.20          0.1815E+06
  14588      1     84    146       66.00          0.1815E+06
  14589      1     84    147       65.60          0.1815E+06
  14590      1     84    148       64.10          0.1815E+06
  14591      1     84    149       62.20          0.1815E+06
  14592      1     84    150       59.70          0.1815E+06
  14593      1     84    151       56.60          0.1815E+06
  14594      1     84    152       53.40          0.1815E+06
  14595      1     84    153       51.00          0.1815E+06
  14596      1     84    154       50.40          0.1815E+06
  14597      1     84    155       49.50          0.1815E+06
  14598      1     84    156       48.10          0.1815E+06
  14599      1     84    157       47.20          0.1815E+06
  14600      1     84    158       46.30          0.1815E+06
  14601      1     84    159       45.90          0.1815E+06
  14602      1     84    160       46.00          0.1815E+06
  14603      1     84    161       45.90          0.1815E+06
  14604      1     84    162       44.80          0.1815E+06
  14605      1     84    163       43.40          0.1815E+06
  14606      1     84    164       42.00          0.1815E+06
  14607      1     84    165       40.10          0.1815E+06
  14608      1     84    166       39.20          0.1815E+06
  14609      1     84    167       39.50          0.1815E+06
  14610      1     84    168       40.10          0.1815E+06
  14611      1     84    169       41.30          0.1815E+06
  14612      1     84    170       42.70          0.1815E+06
  14613      1     84    171       44.40          0.1815E+06
  14614      1     84    172       47.50          0.1815E+06
  14615      1     84    173       49.30          0.1815E+06
  14616      1     84    174       53.00          0.1815E+06
  14617      1     85      1      -11.64          0.1815E+06
  14618      1     85      2      -10.65          0.1815E+06
  14619      1     85      3      -10.65          0.1815E+06
  14620      1     85      4      -10.75          0.1815E+06
  14621      1     85      5      -10.75          0.1815E+06
  14622      1     85      6      -10.45          0.1815E+06
  14623      1     85      7      -10.15          0.1815E+06
  14624      1     85      8      -10.15          0.1815E+06
  14625      1     85      9      -10.15          0.1815E+06
  14626      1     85     10      -10.08          0.1815E+06
  14627      1     85     11      -9.940          0.1815E+06
  14628      1     85     12      -9.010          0.1815E+06
  14629      1     85     13      -8.450          0.1815E+06
  14630      1     85     14      -7.660          0.1815E+06
  14631      1     85     15      -7.660          0.1815E+06
  14632      1     85     16      -7.250          0.1815E+06
  14633      1     85     17      -6.550          0.1815E+06
  14634      1     85     18      -6.100          0.1815E+06
  14635      1     85     19      -6.050          0.1815E+06
  14636      1     85     20      -5.650          0.1815E+06
  14637      1     85     21      -5.650          0.1815E+06
  14638      1     85     22      -3.540          0.1815E+06
  14639      1     85     23      -3.450          0.1815E+06
  14640      1     85     24      -2.850          0.1815E+06
  14641      1     85     25      -2.250          0.1815E+06
  14642      1     85     26      -2.250          0.1815E+06
  14643      1     85     27      0.4500          0.1815E+06
  14644      1     85     28      0.4500          0.1815E+06
  14645      1     85     29      0.4600          0.1815E+06
  14646      1     85     30      0.4600          0.1815E+06
  14647      1     85     31       1.460          0.1815E+06
  14648      1     85     32       1.460          0.1815E+06
  14649      1     85     33       2.470          0.1815E+06
  14650      1     85     34       2.470          0.1815E+06
  14651      1     85     35       2.470          0.1815E+06
  14652      1     85     36       3.480          0.1815E+06
  14653      1     85     37       7.250          0.1815E+06
  14654      1     85     38       11.31          0.1815E+06
  14655      1     85     39       10.42          0.1815E+06
  14656      1     85     40       4.730          0.1815E+06
  14657      1     85     41       2.490          0.1815E+06
  14658      1     85     42       5.490          0.1815E+06
  14659      1     85     43       6.490          0.1815E+06
  14660      1     85     44       6.490          0.1815E+06
  14661      1     85     45       6.490          0.1815E+06
  14662      1     85     46       6.500          0.1815E+06
  14663      1     85     47       6.510          0.1815E+06
  14664      1     85     48       6.000          0.1815E+06
  14665      1     85     49       6.000          0.1815E+06
  14666      1     85     50       5.510          0.1815E+06
  14667      1     85     51       5.520          0.1815E+06
  14668      1     85     52       6.520          0.1815E+06
  14669      1     85     53       6.520          0.1815E+06
  14670      1     85     54       6.520          0.1815E+06
  14671      1     85     55       6.520          0.1815E+06
  14672      1     85     56       7.510          0.1815E+06
  14673      1     85     57       8.510          0.1815E+06
  14674      1     85     58       7.380          0.1815E+06
  14675      1     85     59       10.81          0.1815E+06
  14676      1     85     60       12.31          0.1815E+06
  14677      1     85     61       13.28          0.1815E+06
  14678      1     85     62       13.67          0.1815E+06
  14679      1     85     63       13.93          0.1815E+06
  14680      1     85     64       14.18          0.1815E+06
  14681      1     85     65       14.88          0.1815E+06
  14682      1     85     66       15.52          0.1815E+06
  14683      1     85     67       15.42          0.1815E+06
  14684      1     85     68       15.59          0.1815E+06
  14685      1     85     69       15.47          0.1815E+06
  14686      1     85     70       16.15          0.1815E+06
  14687      1     85     71       16.95          0.1815E+06
  14688      1     85     72       17.42          0.1815E+06
  14689      1     85     73       19.22          0.1815E+06
  14690      1     85     74       21.51          0.1815E+06
  14691      1     85     75       22.73          0.1815E+06
  14692      1     85     76       23.12          0.1815E+06
  14693      1     85     77       23.61          0.1815E+06
  14694      1     85     78       25.79          0.1815E+06
  14695      1     85     79       27.11          0.1815E+06
  14696      1     85     80       27.48          0.1815E+06
  14697      1     85     81       27.60          0.1815E+06
  14698      1     85     82       27.82          0.1815E+06
  14699      1     85     83       27.29          0.1815E+06
  14700      1     85     84       26.50          0.1815E+06
  14701      1     85     85       28.34          0.1815E+06
  14702      1     85     86       28.00          0.1815E+06
  14703      1     85     87       25.10          0.1815E+06
  14704      1     85     88       24.60          0.1815E+06
  14705      1     85     89       30.60          0.1815E+06
  14706      1     85     90       32.30          0.1815E+06
  14707      1     85     91       32.20          0.1815E+06
  14708      1     85     92       31.50          0.1815E+06
  14709      1     85     93       30.50          0.1815E+06
  14710      1     85     94       31.70          0.1815E+06
  14711      1     85     95       33.00          0.1815E+06
  14712      1     85     96       33.80          0.1815E+06
  14713      1     85     97       34.00          0.1815E+06
  14714      1     85     98       33.50          0.1815E+06
  14715      1     85     99       32.70          0.1815E+06
  14716      1     85    100       32.10          0.1815E+06
  14717      1     85    101       31.50          0.1815E+06
  14718      1     85    102       30.50          0.1815E+06
  14719      1     85    103       28.70          0.1815E+06
  14720      1     85    104       26.00          0.1815E+06
  14721      1     85    105       22.00          0.1815E+06
  14722      1     85    106       20.70          0.1815E+06
  14723      1     85    107       19.30          0.1815E+06
  14724      1     85    108       22.10          0.1815E+06
  14725      1     85    109       26.40          0.1815E+06
  14726      1     85    110       30.30          0.1815E+06
  14727      1     85    111       34.40          0.1815E+06
  14728      1     85    112       36.20          0.1815E+06
  14729      1     85    113       36.60          0.1815E+06
  14730      1     85    114       36.50          0.1815E+06
  14731      1     85    115       35.20          0.1815E+06
  14732      1     85    116       32.70          0.1815E+06
  14733      1     85    117       31.70          0.1815E+06
  14734      1     85    118       33.20          0.1815E+06
  14735      1     85    119       35.60          0.1815E+06
  14736      1     85    120       36.70          0.1815E+06
  14737      1     85    121       37.60          0.1815E+06
  14738      1     85    122       38.10          0.1815E+06
  14739      1     85    123       38.60          0.1815E+06
  14740      1     85    124       39.00          0.1815E+06
  14741      1     85    125       38.90          0.1815E+06
  14742      1     85    126       38.90          0.1815E+06
  14743      1     85    127       39.00          0.1815E+06
  14744      1     85    128       39.20          0.1815E+06
  14745      1     85    129       39.30          0.1815E+06
  14746      1     85    130       40.40          0.1815E+06
  14747      1     85    131       41.70          0.1815E+06
  14748      1     85    132       43.10          0.1815E+06
  14749      1     85    133       44.50          0.1815E+06
  14750      1     85    134       46.00          0.1815E+06
  14751      1     85    135       45.70          0.1815E+06
  14752      1     85    136       44.60          0.1815E+06
  14753      1     85    137       46.30          0.1815E+06
  14754      1     85    138       48.90          0.1815E+06
  14755      1     85    139       51.70          0.1815E+06
  14756      1     85    140       55.30          0.1815E+06
  14757      1     85    141       58.90          0.1815E+06
  14758      1     85    142       61.80          0.1815E+06
  14759      1     85    143       64.20          0.1815E+06
  14760      1     85    144       65.70          0.1815E+06
  14761      1     85    145       66.50          0.1815E+06
  14762      1     85    146       67.70          0.1815E+06
  14763      1     85    147       66.90          0.1815E+06
  14764      1     85    148       65.30          0.1815E+06
  14765      1     85    149       63.70          0.1815E+06
  14766      1     85    150       61.70          0.1815E+06
  14767      1     85    151       59.20          0.1815E+06
  14768      1     85    152       56.20          0.1815E+06
  14769      1     85    153       53.40          0.1815E+06
  14770      1     85    154       51.70          0.1815E+06
  14771      1     85    155       50.10          0.1815E+06
  14772      1     85    156       48.70          0.1815E+06
  14773      1     85    157       48.50          0.1815E+06
  14774      1     85    158       48.10          0.1815E+06
  14775      1     85    159       46.00          0.1815E+06
  14776      1     85    160       46.40          0.1815E+06
  14777      1     85    161       46.30          0.1815E+06
  14778      1     85    162       45.10          0.1815E+06
  14779      1     85    163       43.70          0.1815E+06
  14780      1     85    164       42.00          0.1815E+06
  14781      1     85    165       40.40          0.1815E+06
  14782      1     85    166       39.60          0.1815E+06
  14783      1     85    167       40.40          0.1815E+06
  14784      1     85    168       41.20          0.1815E+06
  14785      1     85    169       42.20          0.1815E+06
  14786      1     85    170       43.20          0.1815E+06
  14787      1     85    171       43.50          0.1815E+06
  14788      1     85    172       44.70          0.1815E+06
  14789      1     85    173       48.00          0.1815E+06
  14790      1     85    174       50.00          0.1815E+06
  14791      1     86      1      -11.45          0.1815E+06
  14792      1     86      2      -11.46          0.1815E+06
  14793      1     86      3      -11.46          0.1815E+06
  14794      1     86      4      -10.06          0.1815E+06
  14795      1     86      5      -10.06          0.1815E+06
  14796      1     86      6      -10.10          0.1815E+06
  14797      1     86      7      -10.26          0.1815E+06
  14798      1     86      8      -10.06          0.1815E+06
  14799      1     86      9      -10.06          0.1815E+06
  14800      1     86     10      -10.08          0.1815E+06
  14801      1     86     11      -9.940          0.1815E+06
  14802      1     86     12      -9.010          0.1815E+06
  14803      1     86     13      -8.450          0.1815E+06
  14804      1     86     14      -7.950          0.1815E+06
  14805      1     86     15      -7.950          0.1815E+06
  14806      1     86     16      -7.150          0.1815E+06
  14807      1     86     17      -6.450          0.1815E+06
  14808      1     86     18      -6.060          0.1815E+06
  14809      1     86     19      -6.070          0.1815E+06
  14810      1     86     20      -5.750          0.1815E+06
  14811      1     86     21      -5.750          0.1815E+06
  14812      1     86     22      -3.650          0.1815E+06
  14813      1     86     23      -3.360          0.1815E+06
  14814      1     86     24      -3.050          0.1815E+06
  14815      1     86     25      -2.260          0.1815E+06
  14816      1     86     26      -2.260          0.1815E+06
  14817      1     86     27      -1.700          0.1815E+06
  14818      1     86     28     -0.9500          0.1815E+06
  14819      1     86     29      0.5000E-01      0.1815E+06
  14820      1     86     30      0.4500          0.1815E+06
  14821      1     86     31       1.470          0.1815E+06
  14822      1     86     32       1.470          0.1815E+06
  14823      1     86     33       1.970          0.1815E+06
  14824      1     86     34       2.480          0.1815E+06
  14825      1     86     35       2.470          0.1815E+06
  14826      1     86     36       6.490          0.1815E+06
  14827      1     86     37       5.960          0.1815E+06
  14828      1     86     38       11.22          0.1815E+06
  14829      1     86     39       11.18          0.1815E+06
  14830      1     86     40       9.310          0.1815E+06
  14831      1     86     41       2.490          0.1815E+06
  14832      1     86     42       2.500          0.1815E+06
  14833      1     86     43       4.000          0.1815E+06
  14834      1     86     44       4.000          0.1815E+06
  14835      1     86     45       4.500          0.1815E+06
  14836      1     86     46       5.500          0.1815E+06
  14837      1     86     47       5.010          0.1815E+06
  14838      1     86     48       5.500          0.1815E+06
  14839      1     86     49       5.500          0.1815E+06
  14840      1     86     50       4.260          0.1815E+06
  14841      1     86     51       6.570          0.1815E+06
  14842      1     86     52       6.250          0.1815E+06
  14843      1     86     53       5.260          0.1815E+06
  14844      1     86     54       7.510          0.1815E+06
  14845      1     86     55       7.510          0.1815E+06
  14846      1     86     56       7.510          0.1815E+06
  14847      1     86     57       7.520          0.1815E+06
  14848      1     86     58       9.780          0.1815E+06
  14849      1     86     59       6.820          0.1815E+06
  14850      1     86     60       8.270          0.1815E+06
  14851      1     86     61       9.500          0.1815E+06
  14852      1     86     62       10.67          0.1815E+06
  14853      1     86     63       13.61          0.1815E+06
  14854      1     86     64       14.00          0.1815E+06
  14855      1     86     65       14.18          0.1815E+06
  14856      1     86     66       13.77          0.1815E+06
  14857      1     86     67       14.51          0.1815E+06
  14858      1     86     68       14.93          0.1815E+06
  14859      1     86     69       15.47          0.1815E+06
  14860      1     86     70       15.68          0.1815E+06
  14861      1     86     71       15.72          0.1815E+06
  14862      1     86     72       17.07          0.1815E+06
  14863      1     86     73       18.04          0.1815E+06
  14864      1     86     74       18.63          0.1815E+06
  14865      1     86     75       20.56          0.1815E+06
  14866      1     86     76       21.35          0.1815E+06
  14867      1     86     77       22.29          0.1815E+06
  14868      1     86     78       23.04          0.1815E+06
  14869      1     86     79       24.43          0.1815E+06
  14870      1     86     80       23.84          0.1815E+06
  14871      1     86     81       25.79          0.1815E+06
  14872      1     86     82       26.32          0.1815E+06
  14873      1     86     83       26.35          0.1815E+06
  14874      1     86     84       25.63          0.1815E+06
  14875      1     86     85       26.71          0.1815E+06
  14876      1     86     86       26.00          0.1815E+06
  14877      1     86     87       24.70          0.1815E+06
  14878      1     86     88       25.10          0.1815E+06
  14879      1     86     89       28.50          0.1815E+06
  14880      1     86     90       31.50          0.1815E+06
  14881      1     86     91       31.00          0.1815E+06
  14882      1     86     92       29.70          0.1815E+06
  14883      1     86     93       29.80          0.1815E+06
  14884      1     86     94       31.50          0.1815E+06
  14885      1     86     95       33.10          0.1815E+06
  14886      1     86     96       33.90          0.1815E+06
  14887      1     86     97       33.80          0.1815E+06
  14888      1     86     98       33.30          0.1815E+06
  14889      1     86     99       32.40          0.1815E+06
  14890      1     86    100       31.70          0.1815E+06
  14891      1     86    101       31.10          0.1815E+06
  14892      1     86    102       29.70          0.1815E+06
  14893      1     86    103       27.40          0.1815E+06
  14894      1     86    104       26.20          0.1815E+06
  14895      1     86    105       23.10          0.1815E+06
  14896      1     86    106       19.10          0.1815E+06
  14897      1     86    107       19.10          0.1815E+06
  14898      1     86    108       22.60          0.1815E+06
  14899      1     86    109       26.90          0.1815E+06
  14900      1     86    110       30.10          0.1815E+06
  14901      1     86    111       33.10          0.1815E+06
  14902      1     86    112       34.80          0.1815E+06
  14903      1     86    113       36.10          0.1815E+06
  14904      1     86    114       36.40          0.1815E+06
  14905      1     86    115       36.00          0.1815E+06
  14906      1     86    116       35.80          0.1815E+06
  14907      1     86    117       34.70          0.1815E+06
  14908      1     86    118       33.20          0.1815E+06
  14909      1     86    119       34.40          0.1815E+06
  14910      1     86    120       35.60          0.1815E+06
  14911      1     86    121       36.30          0.1815E+06
  14912      1     86    122       36.90          0.1815E+06
  14913      1     86    123       37.40          0.1815E+06
  14914      1     86    124       38.10          0.1815E+06
  14915      1     86    125       38.60          0.1815E+06
  14916      1     86    126       38.80          0.1815E+06
  14917      1     86    127       39.20          0.1815E+06
  14918      1     86    128       39.60          0.1815E+06
  14919      1     86    129       40.10          0.1815E+06
  14920      1     86    130       41.30          0.1815E+06
  14921      1     86    131       42.70          0.1815E+06
  14922      1     86    132       44.00          0.1815E+06
  14923      1     86    133       45.50          0.1815E+06
  14924      1     86    134       47.20          0.1815E+06
  14925      1     86    135       47.70          0.1815E+06
  14926      1     86    136       46.60          0.1815E+06
  14927      1     86    137       45.20          0.1815E+06
  14928      1     86    138       47.40          0.1815E+06
  14929      1     86    139       50.30          0.1815E+06
  14930      1     86    140       53.90          0.1815E+06
  14931      1     86    141       57.50          0.1815E+06
  14932      1     86    142       60.20          0.1815E+06
  14933      1     86    143       63.70          0.1815E+06
  14934      1     86    144       66.20          0.1815E+06
  14935      1     86    145       66.90          0.1815E+06
  14936      1     86    146       67.90          0.1815E+06
  14937      1     86    147       67.80          0.1815E+06
  14938      1     86    148       66.60          0.1815E+06
  14939      1     86    149       65.40          0.1815E+06
  14940      1     86    150       63.10          0.1815E+06
  14941      1     86    151       60.90          0.1815E+06
  14942      1     86    152       58.00          0.1815E+06
  14943      1     86    153       55.10          0.1815E+06
  14944      1     86    154       52.00          0.1815E+06
  14945      1     86    155       49.60          0.1815E+06
  14946      1     86    156       49.00          0.1815E+06
  14947      1     86    157       49.70          0.1815E+06
  14948      1     86    158       50.20          0.1815E+06
  14949      1     86    159       50.60          0.1815E+06
  14950      1     86    160       45.20          0.1815E+06
  14951      1     86    161       45.90          0.1815E+06
  14952      1     86    162       45.10          0.1815E+06
  14953      1     86    163       43.50          0.1815E+06
  14954      1     86    164       41.70          0.1815E+06
  14955      1     86    165       40.40          0.1815E+06
  14956      1     86    166       39.80          0.1815E+06
  14957      1     86    167       40.80          0.1815E+06
  14958      1     86    168       42.00          0.1815E+06
  14959      1     86    169       43.20          0.1815E+06
  14960      1     86    170       44.40          0.1815E+06
  14961      1     86    171       44.40          0.1815E+06
  14962      1     86    172       44.10          0.1815E+06
  14963      1     86    173       45.20          0.1815E+06
  14964      1     86    174       48.40          0.1815E+06
  14965      1     87      1      -11.46          0.1815E+06
  14966      1     87      2      -9.360          0.1815E+06
  14967      1     87      3      -9.360          0.1815E+06
  14968      1     87      4      -10.06          0.1815E+06
  14969      1     87      5      -10.06          0.1815E+06
  14970      1     87      6      -10.10          0.1815E+06
  14971      1     87      7      -10.26          0.1815E+06
  14972      1     87      8      -10.06          0.1815E+06
  14973      1     87      9      -10.06          0.1815E+06
  14974      1     87     10      -10.06          0.1815E+06
  14975      1     87     11      -10.06          0.1815E+06
  14976      1     87     12      -9.260          0.1815E+06
  14977      1     87     13      -8.860          0.1815E+06
  14978      1     87     14      -8.000          0.1815E+06
  14979      1     87     15      -8.000          0.1815E+06
  14980      1     87     16      -7.070          0.1815E+06
  14981      1     87     17      -6.660          0.1815E+06
  14982      1     87     18      -6.060          0.1815E+06
  14983      1     87     19      -6.210          0.1815E+06
  14984      1     87     20      -5.560          0.1815E+06
  14985      1     87     21      -5.560          0.1815E+06
  14986      1     87     22      -3.360          0.1815E+06
  14987      1     87     23      -3.280          0.1815E+06
  14988      1     87     24      -2.860          0.1815E+06
  14989      1     87     25      -1.920          0.1815E+06
  14990      1     87     26      -1.920          0.1815E+06
  14991      1     87     27      -1.680          0.1815E+06
  14992      1     87     28      -1.430          0.1815E+06
  14993      1     87     29     -0.6700          0.1815E+06
  14994      1     87     30      0.4500          0.1815E+06
  14995      1     87     31       1.470          0.1815E+06
  14996      1     87     32       1.470          0.1815E+06
  14997      1     87     33       1.970          0.1815E+06
  14998      1     87     34       2.480          0.1815E+06
  14999      1     87     35       3.480          0.1815E+06
  15000      1     87     36       5.480          0.1815E+06
  15001      1     87     37       5.130          0.1815E+06
  15002      1     87     38       13.97          0.1815E+06
  15003      1     87     39       12.72          0.1815E+06
  15004      1     87     40       8.970          0.1815E+06
  15005      1     87     41       7.490          0.1815E+06
  15006      1     87     42       4.420          0.1815E+06
  15007      1     87     43       8.500          0.1815E+06
  15008      1     87     44       8.500          0.1815E+06
  15009      1     87     45       6.500          0.1815E+06
  15010      1     87     46       6.510          0.1815E+06
  15011      1     87     47       8.500          0.1815E+06
  15012      1     87     48       4.780          0.1815E+06
  15013      1     87     49       7.340          0.1815E+06
  15014      1     87     50       9.390          0.1815E+06
  15015      1     87     51       5.820          0.1815E+06
  15016      1     87     52       6.150          0.1815E+06
  15017      1     87     53       6.400          0.1815E+06
  15018      1     87     54       7.510          0.1815E+06
  15019      1     87     55       7.510          0.1815E+06
  15020      1     87     56       7.520          0.1815E+06
  15021      1     87     57       7.520          0.1815E+06
  15022      1     87     58       9.430          0.1815E+06
  15023      1     87     59       8.420          0.1815E+06
  15024      1     87     60       10.47          0.1815E+06
  15025      1     87     61       11.15          0.1815E+06
  15026      1     87     62       10.34          0.1815E+06
  15027      1     87     63       10.86          0.1815E+06
  15028      1     87     64       12.22          0.1815E+06
  15029      1     87     65       13.48          0.1815E+06
  15030      1     87     66       12.72          0.1815E+06
  15031      1     87     67       13.71          0.1815E+06
  15032      1     87     68       13.88          0.1815E+06
  15033      1     87     69       14.94          0.1815E+06
  15034      1     87     70       15.71          0.1815E+06
  15035      1     87     71       16.68          0.1815E+06
  15036      1     87     72       17.20          0.1815E+06
  15037      1     87     73       17.48          0.1815E+06
  15038      1     87     74       18.46          0.1815E+06
  15039      1     87     75       19.17          0.1815E+06
  15040      1     87     76       19.54          0.1815E+06
  15041      1     87     77       21.09          0.1815E+06
  15042      1     87     78       22.20          0.1815E+06
  15043      1     87     79       23.19          0.1815E+06
  15044      1     87     80       24.21          0.1815E+06
  15045      1     87     81       24.67          0.1815E+06
  15046      1     87     82       24.53          0.1815E+06
  15047      1     87     83       24.07          0.1815E+06
  15048      1     87     84       24.64          0.1815E+06
  15049      1     87     85       26.25          0.1815E+06
  15050      1     87     86       24.40          0.1815E+06
  15051      1     87     87       23.30          0.1815E+06
  15052      1     87     88       25.60          0.1815E+06
  15053      1     87     89       27.20          0.1815E+06
  15054      1     87     90       28.90          0.1815E+06
  15055      1     87     91       28.70          0.1815E+06
  15056      1     87     92       29.10          0.1815E+06
  15057      1     87     93       30.40          0.1815E+06
  15058      1     87     94       31.60          0.1815E+06
  15059      1     87     95       33.00          0.1815E+06
  15060      1     87     96       33.60          0.1815E+06
  15061      1     87     97       33.40          0.1815E+06
  15062      1     87     98       33.00          0.1815E+06
  15063      1     87     99       32.40          0.1815E+06
  15064      1     87    100       31.40          0.1815E+06
  15065      1     87    101       30.00          0.1815E+06
  15066      1     87    102       27.00          0.1815E+06
  15067      1     87    103       23.80          0.1815E+06
  15068      1     87    104       22.30          0.1815E+06
  15069      1     87    105       20.90          0.1815E+06
  15070      1     87    106       19.10          0.1815E+06
  15071      1     87    107       19.70          0.1815E+06
  15072      1     87    108       23.50          0.1815E+06
  15073      1     87    109       27.50          0.1815E+06
  15074      1     87    110       31.00          0.1815E+06
  15075      1     87    111       32.50          0.1815E+06
  15076      1     87    112       33.80          0.1815E+06
  15077      1     87    113       35.20          0.1815E+06
  15078      1     87    114       36.50          0.1815E+06
  15079      1     87    115       37.00          0.1815E+06
  15080      1     87    116       37.00          0.1815E+06
  15081      1     87    117       36.50          0.1815E+06
  15082      1     87    118       34.60          0.1815E+06
  15083      1     87    119       34.00          0.1815E+06
  15084      1     87    120       34.50          0.1815E+06
  15085      1     87    121       34.80          0.1815E+06
  15086      1     87    122       35.10          0.1815E+06
  15087      1     87    123       35.60          0.1815E+06
  15088      1     87    124       36.60          0.1815E+06
  15089      1     87    125       37.70          0.1815E+06
  15090      1     87    126       38.50          0.1815E+06
  15091      1     87    127       39.40          0.1815E+06
  15092      1     87    128       40.40          0.1815E+06
  15093      1     87    129       41.20          0.1815E+06
  15094      1     87    130       42.50          0.1815E+06
  15095      1     87    131       44.00          0.1815E+06
  15096      1     87    132       45.30          0.1815E+06
  15097      1     87    133       46.80          0.1815E+06
  15098      1     87    134       48.60          0.1815E+06
  15099      1     87    135       49.60          0.1815E+06
  15100      1     87    136       48.90          0.1815E+06
  15101      1     87    137       47.90          0.1815E+06
  15102      1     87    138       47.80          0.1815E+06
  15103      1     87    139       48.40          0.1815E+06
  15104      1     87    140       52.10          0.1815E+06
  15105      1     87    141       57.10          0.1815E+06
  15106      1     87    142       59.90          0.1815E+06
  15107      1     87    143       63.70          0.1815E+06
  15108      1     87    144       66.60          0.1815E+06
  15109      1     87    145       67.70          0.1815E+06
  15110      1     87    146       68.10          0.1815E+06
  15111      1     87    147       68.00          0.1815E+06
  15112      1     87    148       67.40          0.1815E+06
  15113      1     87    149       66.20          0.1815E+06
  15114      1     87    150       64.40          0.1815E+06
  15115      1     87    151       61.90          0.1815E+06
  15116      1     87    152       59.00          0.1815E+06
  15117      1     87    153       55.60          0.1815E+06
  15118      1     87    154       51.30          0.1815E+06
  15119      1     87    155       49.50          0.1815E+06
  15120      1     87    156       49.80          0.1815E+06
  15121      1     87    157       50.60          0.1815E+06
  15122      1     87    158       51.20          0.1815E+06
  15123      1     87    159       50.80          0.1815E+06
  15124      1     87    160       48.70          0.1815E+06
  15125      1     87    161       45.10          0.1815E+06
  15126      1     87    162       45.10          0.1815E+06
  15127      1     87    163       43.40          0.1815E+06
  15128      1     87    164       41.30          0.1815E+06
  15129      1     87    165       40.00          0.1815E+06
  15130      1     87    166       40.30          0.1815E+06
  15131      1     87    167       41.50          0.1815E+06
  15132      1     87    168       42.60          0.1815E+06
  15133      1     87    169       43.60          0.1815E+06
  15134      1     87    170       44.80          0.1815E+06
  15135      1     87    171       45.90          0.1815E+06
  15136      1     87    172       45.50          0.1815E+06
  15137      1     87    173       45.30          0.1815E+06
  15138      1     87    174       47.40          0.1815E+06
  15139      1     88      1      -11.46          0.1815E+06
  15140      1     88      2      -9.360          0.1815E+06
  15141      1     88      3      -9.360          0.1815E+06
  15142      1     88      4      -10.06          0.1815E+06
  15143      1     88      5      -9.560          0.1815E+06
  15144      1     88      6      -9.760          0.1815E+06
  15145      1     88      7      -9.560          0.1815E+06
  15146      1     88      8      -9.560          0.1815E+06
  15147      1     88      9      -9.560          0.1815E+06
  15148      1     88     10      -9.780          0.1815E+06
  15149      1     88     11      -10.09          0.1815E+06
  15150      1     88     12      -9.660          0.1815E+06
  15151      1     88     13      -9.260          0.1815E+06
  15152      1     88     14      -8.160          0.1815E+06
  15153      1     88     15      -8.160          0.1815E+06
  15154      1     88     16      -6.010          0.1815E+06
  15155      1     88     17      -6.700          0.1815E+06
  15156      1     88     18      -6.940          0.1815E+06
  15157      1     88     19      -6.830          0.1815E+06
  15158      1     88     20      -5.850          0.1815E+06
  15159      1     88     21      -5.850          0.1815E+06
  15160      1     88     22      -4.870          0.1815E+06
  15161      1     88     23      -4.450          0.1815E+06
  15162      1     88     24      -3.580          0.1815E+06
  15163      1     88     25      -1.920          0.1815E+06
  15164      1     88     26      -1.920          0.1815E+06
  15165      1     88     27      -1.680          0.1815E+06
  15166      1     88     28      -1.430          0.1815E+06
  15167      1     88     29     -0.6700          0.1815E+06
  15168      1     88     30      0.1700          0.1815E+06
  15169      1     88     31      0.4600          0.1815E+06
  15170      1     88     32      0.4600          0.1815E+06
  15171      1     88     33       1.470          0.1815E+06
  15172      1     88     34       2.470          0.1815E+06
  15173      1     88     35       3.470          0.1815E+06
  15174      1     88     36       5.480          0.1815E+06
  15175      1     88     37       7.490          0.1815E+06
  15176      1     88     38       7.490          0.1815E+06
  15177      1     88     39       12.52          0.1815E+06
  15178      1     88     40       7.840          0.1815E+06
  15179      1     88     41       5.510          0.1815E+06
  15180      1     88     42       8.400          0.1815E+06
  15181      1     88     43       9.020          0.1815E+06
  15182      1     88     44       7.170          0.1815E+06
  15183      1     88     45       3.910          0.1815E+06
  15184      1     88     46       4.050          0.1815E+06
  15185      1     88     47       4.750          0.1815E+06
  15186      1     88     48       6.550          0.1815E+06
  15187      1     88     49       10.40          0.1815E+06
  15188      1     88     50       9.140          0.1815E+06
  15189      1     88     51       7.400          0.1815E+06
  15190      1     88     52       7.170          0.1815E+06
  15191      1     88     53       6.800          0.1815E+06
  15192      1     88     54       7.520          0.1815E+06
  15193      1     88     55       7.520          0.1815E+06
  15194      1     88     56       8.520          0.1815E+06
  15195      1     88     57       8.520          0.1815E+06
  15196      1     88     58       9.150          0.1815E+06
  15197      1     88     59       8.100          0.1815E+06
  15198      1     88     60       10.60          0.1815E+06
  15199      1     88     61       12.18          0.1815E+06
  15200      1     88     62       11.72          0.1815E+06
  15201      1     88     63       11.06          0.1815E+06
  15202      1     88     64       10.52          0.1815E+06
  15203      1     88     65       12.02          0.1815E+06
  15204      1     88     66       13.68          0.1815E+06
  15205      1     88     67       14.38          0.1815E+06
  15206      1     88     68       14.52          0.1815E+06
  15207      1     88     69       14.52          0.1815E+06
  15208      1     88     70       15.67          0.1815E+06
  15209      1     88     71       16.28          0.1815E+06
  15210      1     88     72       16.43          0.1815E+06
  15211      1     88     73       16.71          0.1815E+06
  15212      1     88     74       17.26          0.1815E+06
  15213      1     88     75       17.85          0.1815E+06
  15214      1     88     76       18.70          0.1815E+06
  15215      1     88     77       20.12          0.1815E+06
  15216      1     88     78       21.44          0.1815E+06
  15217      1     88     79       22.94          0.1815E+06
  15218      1     88     80       23.82          0.1815E+06
  15219      1     88     81       23.77          0.1815E+06
  15220      1     88     82       23.84          0.1815E+06
  15221      1     88     83       21.43          0.1815E+06
  15222      1     88     84       22.57          0.1815E+06
  15223      1     88     85       22.94          0.1815E+06
  15224      1     88     86       20.40          0.1815E+06
  15225      1     88     87       22.10          0.1815E+06
  15226      1     88     88       24.30          0.1815E+06
  15227      1     88     89       25.10          0.1815E+06
  15228      1     88     90       25.20          0.1815E+06
  15229      1     88     91       27.80          0.1815E+06
  15230      1     88     92       29.90          0.1815E+06
  15231      1     88     93       31.40          0.1815E+06
  15232      1     88     94       32.20          0.1815E+06
  15233      1     88     95       32.80          0.1815E+06
  15234      1     88     96       33.00          0.1815E+06
  15235      1     88     97       33.00          0.1815E+06
  15236      1     88     98       32.70          0.1815E+06
  15237      1     88     99       32.10          0.1815E+06
  15238      1     88    100       31.30          0.1815E+06
  15239      1     88    101       30.10          0.1815E+06
  15240      1     88    102       27.40          0.1815E+06
  15241      1     88    103       24.80          0.1815E+06
  15242      1     88    104       19.70          0.1815E+06
  15243      1     88    105       18.30          0.1815E+06
  15244      1     88    106       19.70          0.1815E+06
  15245      1     88    107       24.70          0.1815E+06
  15246      1     88    108       26.70          0.1815E+06
  15247      1     88    109       29.10          0.1815E+06
  15248      1     88    110       31.40          0.1815E+06
  15249      1     88    111       33.90          0.1815E+06
  15250      1     88    112       34.70          0.1815E+06
  15251      1     88    113       35.60          0.1815E+06
  15252      1     88    114       37.00          0.1815E+06
  15253      1     88    115       38.10          0.1815E+06
  15254      1     88    116       37.40          0.1815E+06
  15255      1     88    117       36.60          0.1815E+06
  15256      1     88    118       35.90          0.1815E+06
  15257      1     88    119       34.70          0.1815E+06
  15258      1     88    120       35.20          0.1815E+06
  15259      1     88    121       35.50          0.1815E+06
  15260      1     88    122       35.40          0.1815E+06
  15261      1     88    123       35.70          0.1815E+06
  15262      1     88    124       36.40          0.1815E+06
  15263      1     88    125       37.50          0.1815E+06
  15264      1     88    126       38.90          0.1815E+06
  15265      1     88    127       40.10          0.1815E+06
  15266      1     88    128       41.30          0.1815E+06
  15267      1     88    129       42.50          0.1815E+06
  15268      1     88    130       43.90          0.1815E+06
  15269      1     88    131       45.20          0.1815E+06
  15270      1     88    132       47.00          0.1815E+06
  15271      1     88    133       48.70          0.1815E+06
  15272      1     88    134       50.10          0.1815E+06
  15273      1     88    135       51.20          0.1815E+06
  15274      1     88    136       51.40          0.1815E+06
  15275      1     88    137       51.60          0.1815E+06
  15276      1     88    138       51.30          0.1815E+06
  15277      1     88    139       49.70          0.1815E+06
  15278      1     88    140       50.80          0.1815E+06
  15279      1     88    141       57.60          0.1815E+06
  15280      1     88    142       61.30          0.1815E+06
  15281      1     88    143       64.40          0.1815E+06
  15282      1     88    144       66.90          0.1815E+06
  15283      1     88    145       68.20          0.1815E+06
  15284      1     88    146       68.30          0.1815E+06
  15285      1     88    147       68.10          0.1815E+06
  15286      1     88    148       67.80          0.1815E+06
  15287      1     88    149       67.10          0.1815E+06
  15288      1     88    150       65.60          0.1815E+06
  15289      1     88    151       62.60          0.1815E+06
  15290      1     88    152       58.90          0.1815E+06
  15291      1     88    153       55.40          0.1815E+06
  15292      1     88    154       51.10          0.1815E+06
  15293      1     88    155       50.40          0.1815E+06
  15294      1     88    156       51.20          0.1815E+06
  15295      1     88    157       51.60          0.1815E+06
  15296      1     88    158       51.10          0.1815E+06
  15297      1     88    159       49.90          0.1815E+06
  15298      1     88    160       48.40          0.1815E+06
  15299      1     88    161       46.10          0.1815E+06
  15300      1     88    162       44.80          0.1815E+06
  15301      1     88    163       42.80          0.1815E+06
  15302      1     88    164       40.50          0.1815E+06
  15303      1     88    165       40.60          0.1815E+06
  15304      1     88    166       42.00          0.1815E+06
  15305      1     88    167       42.70          0.1815E+06
  15306      1     88    168       42.90          0.1815E+06
  15307      1     88    169       43.40          0.1815E+06
  15308      1     88    170       44.70          0.1815E+06
  15309      1     88    171       46.00          0.1815E+06
  15310      1     88    172       46.70          0.1815E+06
  15311      1     88    173       46.90          0.1815E+06
  15312      1     88    174       47.50          0.1815E+06
  15313      1     89      1      -11.46          0.1815E+06
  15314      1     89      2      -9.360          0.1815E+06
  15315      1     89      3      -9.360          0.1815E+06
  15316      1     89      4      -10.06          0.1815E+06
  15317      1     89      5      -9.560          0.1815E+06
  15318      1     89      6      -9.760          0.1815E+06
  15319      1     89      7      -9.560          0.1815E+06
  15320      1     89      8      -9.560          0.1815E+06
  15321      1     89      9      -9.560          0.1815E+06
  15322      1     89     10      -9.780          0.1815E+06
  15323      1     89     11      -10.09          0.1815E+06
  15324      1     89     12      -9.660          0.1815E+06
  15325      1     89     13      -9.260          0.1815E+06
  15326      1     89     14      -8.160          0.1815E+06
  15327      1     89     15      -8.160          0.1815E+06
  15328      1     89     16      -6.010          0.1815E+06
  15329      1     89     17      -6.700          0.1815E+06
  15330      1     89     18      -6.940          0.1815E+06
  15331      1     89     19      -6.830          0.1815E+06
  15332      1     89     20      -5.850          0.1815E+06
  15333      1     89     21      -5.850          0.1815E+06
  15334      1     89     22      -4.870          0.1815E+06
  15335      1     89     23      -4.450          0.1815E+06
  15336      1     89     24      -3.580          0.1815E+06
  15337      1     89     25      -1.920          0.1815E+06
  15338      1     89     26      -1.920          0.1815E+06
  15339      1     89     27      -1.680          0.1815E+06
  15340      1     89     28      -1.430          0.1815E+06
  15341      1     89     29     -0.6700          0.1815E+06
  15342      1     89     30      0.1700          0.1815E+06
  15343      1     89     31      0.4600          0.1815E+06
  15344      1     89     32      0.4600          0.1815E+06
  15345      1     89     33       1.470          0.1815E+06
  15346      1     89     34       2.470          0.1815E+06
  15347      1     89     35       3.470          0.1815E+06
  15348      1     89     36       5.480          0.1815E+06
  15349      1     89     37       7.490          0.1815E+06
  15350      1     89     38       7.490          0.1815E+06
  15351      1     89     39       14.05          0.1815E+06
  15352      1     89     40       8.980          0.1815E+06
  15353      1     89     41       6.760          0.1815E+06
  15354      1     89     42       9.270          0.1815E+06
  15355      1     89     43       10.18          0.1815E+06
  15356      1     89     44       9.930          0.1815E+06
  15357      1     89     45       7.420          0.1815E+06
  15358      1     89     46       8.680          0.1815E+06
  15359      1     89     47       8.110          0.1815E+06
  15360      1     89     48       8.270          0.1815E+06
  15361      1     89     49       7.570          0.1815E+06
  15362      1     89     50       8.980          0.1815E+06
  15363      1     89     51       7.920          0.1815E+06
  15364      1     89     52       7.630          0.1815E+06
  15365      1     89     53       7.260          0.1815E+06
  15366      1     89     54       7.520          0.1815E+06
  15367      1     89     55       7.520          0.1815E+06
  15368      1     89     56       8.520          0.1815E+06
  15369      1     89     57       8.520          0.1815E+06
  15370      1     89     58       8.930          0.1815E+06
  15371      1     89     59       7.760          0.1815E+06
  15372      1     89     60       10.47          0.1815E+06
  15373      1     89     61       12.35          0.1815E+06
  15374      1     89     62       12.69          0.1815E+06
  15375      1     89     63       12.40          0.1815E+06
  15376      1     89     64       11.90          0.1815E+06
  15377      1     89     65       11.77          0.1815E+06
  15378      1     89     66       13.68          0.1815E+06
  15379      1     89     67       14.43          0.1815E+06
  15380      1     89     68       14.81          0.1815E+06
  15381      1     89     69       14.17          0.1815E+06
  15382      1     89     70       15.26          0.1815E+06
  15383      1     89     71       15.71          0.1815E+06
  15384      1     89     72       15.52          0.1815E+06
  15385      1     89     73       15.81          0.1815E+06
  15386      1     89     74       16.70          0.1815E+06
  15387      1     89     75       16.75          0.1815E+06
  15388      1     89     76       17.59          0.1815E+06
  15389      1     89     77       19.70          0.1815E+06
  15390      1     89     78       20.62          0.1815E+06
  15391      1     89     79       21.69          0.1815E+06
  15392      1     89     80       22.53          0.1815E+06
  15393      1     89     81       21.64          0.1815E+06
  15394      1     89     82       20.73          0.1815E+06
  15395      1     89     83       18.62          0.1815E+06
  15396      1     89     84       19.34          0.1815E+06
  15397      1     89     85       20.28          0.1815E+06
  15398      1     89     86       22.00          0.1815E+06
  15399      1     89     87       25.00          0.1815E+06
  15400      1     89     88       25.30          0.1815E+06
  15401      1     89     89       25.40          0.1815E+06
  15402      1     89     90       26.30          0.1815E+06
  15403      1     89     91       28.90          0.1815E+06
  15404      1     89     92       30.90          0.1815E+06
  15405      1     89     93       31.70          0.1815E+06
  15406      1     89     94       31.90          0.1815E+06
  15407      1     89     95       32.20          0.1815E+06
  15408      1     89     96       32.50          0.1815E+06
  15409      1     89     97       32.60          0.1815E+06
  15410      1     89     98       32.10          0.1815E+06
  15411      1     89     99       31.60          0.1815E+06
  15412      1     89    100       31.20          0.1815E+06
  15413      1     89    101       30.70          0.1815E+06
  15414      1     89    102       28.00          0.1815E+06
  15415      1     89    103       22.10          0.1815E+06
  15416      1     89    104       19.20          0.1815E+06
  15417      1     89    105       23.90          0.1815E+06
  15418      1     89    106       28.30          0.1815E+06
  15419      1     89    107       29.40          0.1815E+06
  15420      1     89    108       30.90          0.1815E+06
  15421      1     89    109       32.40          0.1815E+06
  15422      1     89    110       34.70          0.1815E+06
  15423      1     89    111       35.70          0.1815E+06
  15424      1     89    112       36.30          0.1815E+06
  15425      1     89    113       37.10          0.1815E+06
  15426      1     89    114       37.90          0.1815E+06
  15427      1     89    115       38.50          0.1815E+06
  15428      1     89    116       38.40          0.1815E+06
  15429      1     89    117       38.30          0.1815E+06
  15430      1     89    118       37.10          0.1815E+06
  15431      1     89    119       36.70          0.1815E+06
  15432      1     89    120       37.10          0.1815E+06
  15433      1     89    121       37.40          0.1815E+06
  15434      1     89    122       37.30          0.1815E+06
  15435      1     89    123       37.50          0.1815E+06
  15436      1     89    124       37.40          0.1815E+06
  15437      1     89    125       38.50          0.1815E+06
  15438      1     89    126       39.80          0.1815E+06
  15439      1     89    127       41.10          0.1815E+06
  15440      1     89    128       42.40          0.1815E+06
  15441      1     89    129       43.60          0.1815E+06
  15442      1     89    130       44.80          0.1815E+06
  15443      1     89    131       46.90          0.1815E+06
  15444      1     89    132       49.30          0.1815E+06
  15445      1     89    133       50.90          0.1815E+06
  15446      1     89    134       52.30          0.1815E+06
  15447      1     89    135       53.80          0.1815E+06
  15448      1     89    136       54.40          0.1815E+06
  15449      1     89    137       55.20          0.1815E+06
  15450      1     89    138       54.80          0.1815E+06
  15451      1     89    139       53.20          0.1815E+06
  15452      1     89    140       53.70          0.1815E+06
  15453      1     89    141       54.50          0.1815E+06
  15454      1     89    142       59.20          0.1815E+06
  15455      1     89    143       63.00          0.1815E+06
  15456      1     89    144       66.10          0.1815E+06
  15457      1     89    145       67.70          0.1815E+06
  15458      1     89    146       68.50          0.1815E+06
  15459      1     89    147       68.20          0.1815E+06
  15460      1     89    148       67.70          0.1815E+06
  15461      1     89    149       66.70          0.1815E+06
  15462      1     89    150       65.20          0.1815E+06
  15463      1     89    151       62.00          0.1815E+06
  15464      1     89    152       58.70          0.1815E+06
  15465      1     89    153       55.00          0.1815E+06
  15466      1     89    154       51.00          0.1815E+06
  15467      1     89    155       51.10          0.1815E+06
  15468      1     89    156       51.30          0.1815E+06
  15469      1     89    157       50.80          0.1815E+06
  15470      1     89    158       49.90          0.1815E+06
  15471      1     89    159       48.50          0.1815E+06
  15472      1     89    160       47.10          0.1815E+06
  15473      1     89    161       45.70          0.1815E+06
  15474      1     89    162       44.90          0.1815E+06
  15475      1     89    163       43.80          0.1815E+06
  15476      1     89    164       41.40          0.1815E+06
  15477      1     89    165       42.90          0.1815E+06
  15478      1     89    166       43.60          0.1815E+06
  15479      1     89    167       43.20          0.1815E+06
  15480      1     89    168       42.80          0.1815E+06
  15481      1     89    169       43.20          0.1815E+06
  15482      1     89    170       44.60          0.1815E+06
  15483      1     89    171       45.90          0.1815E+06
  15484      1     89    172       47.20          0.1815E+06
  15485      1     89    173       48.10          0.1815E+06
  15486      1     89    174       48.80          0.1815E+06
  15487      1     90      1      -10.46          0.1815E+06
  15488      1     90      2      -7.960          0.1815E+06
  15489      1     90      3      -7.960          0.1815E+06
  15490      1     90      4      -9.260          0.1815E+06
  15491      1     90      5      -9.560          0.1815E+06
  15492      1     90      6      -10.00          0.1815E+06
  15493      1     90      7      -9.670          0.1815E+06
  15494      1     90      8      -9.570          0.1815E+06
  15495      1     90      9      -9.570          0.1815E+06
  15496      1     90     10      -9.570          0.1815E+06
  15497      1     90     11      -9.870          0.1815E+06
  15498      1     90     12      -9.960          0.1815E+06
  15499      1     90     13      -9.570          0.1815E+06
  15500      1     90     14      -8.770          0.1815E+06
  15501      1     90     15      -8.770          0.1815E+06
  15502      1     90     16      -7.770          0.1815E+06
  15503      1     90     17      -7.670          0.1815E+06
  15504      1     90     18      -7.870          0.1815E+06
  15505      1     90     19      -7.470          0.1815E+06
  15506      1     90     20      -5.850          0.1815E+06
  15507      1     90     21      -5.850          0.1815E+06
  15508      1     90     22      -4.870          0.1815E+06
  15509      1     90     23      -4.450          0.1815E+06
  15510      1     90     24      -3.580          0.1815E+06
  15511      1     90     25      -1.260          0.1815E+06
  15512      1     90     26      -1.260          0.1815E+06
  15513      1     90     27      -1.860          0.1815E+06
  15514      1     90     28      -1.980          0.1815E+06
  15515      1     90     29      -1.430          0.1815E+06
  15516      1     90     30      0.4600          0.1815E+06
  15517      1     90     31      0.4700          0.1815E+06
  15518      1     90     32      0.4700          0.1815E+06
  15519      1     90     33       1.470          0.1815E+06
  15520      1     90     34       2.480          0.1815E+06
  15521      1     90     35       3.480          0.1815E+06
  15522      1     90     36       4.480          0.1815E+06
  15523      1     90     37       5.990          0.1815E+06
  15524      1     90     38       5.990          0.1815E+06
  15525      1     90     39       12.69          0.1815E+06
  15526      1     90     40       10.50          0.1815E+06
  15527      1     90     41       7.570          0.1815E+06
  15528      1     90     42       6.480          0.1815E+06
  15529      1     90     43       6.440          0.1815E+06
  15530      1     90     44       6.780          0.1815E+06
  15531      1     90     45       7.230          0.1815E+06
  15532      1     90     46       7.210          0.1815E+06
  15533      1     90     47       8.060          0.1815E+06
  15534      1     90     48       8.890          0.1815E+06
  15535      1     90     49       8.980          0.1815E+06
  15536      1     90     50       8.050          0.1815E+06
  15537      1     90     51       9.020          0.1815E+06
  15538      1     90     52       8.460          0.1815E+06
  15539      1     90     53       7.800          0.1815E+06
  15540      1     90     54       7.190          0.1815E+06
  15541      1     90     55       7.010          0.1815E+06
  15542      1     90     56       7.530          0.1815E+06
  15543      1     90     57       7.190          0.1815E+06
  15544      1     90     58       8.600          0.1815E+06
  15545      1     90     59       7.440          0.1815E+06
  15546      1     90     60       10.82          0.1815E+06
  15547      1     90     61       12.43          0.1815E+06
  15548      1     90     62       13.10          0.1815E+06
  15549      1     90     63       13.26          0.1815E+06
  15550      1     90     64       13.10          0.1815E+06
  15551      1     90     65       12.67          0.1815E+06
  15552      1     90     66       13.14          0.1815E+06
  15553      1     90     67       13.97          0.1815E+06
  15554      1     90     68       14.55          0.1815E+06
  15555      1     90     69       13.90          0.1815E+06
  15556      1     90     70       14.85          0.1815E+06
  15557      1     90     71       14.85          0.1815E+06
  15558      1     90     72       15.14          0.1815E+06
  15559      1     90     73       15.57          0.1815E+06
  15560      1     90     74       15.94          0.1815E+06
  15561      1     90     75       15.52          0.1815E+06
  15562      1     90     76       16.70          0.1815E+06
  15563      1     90     77       18.62          0.1815E+06
  15564      1     90     78       20.80          0.1815E+06
  15565      1     90     79       21.44          0.1815E+06
  15566      1     90     80       20.79          0.1815E+06
  15567      1     90     81       16.81          0.1815E+06
  15568      1     90     82       18.34          0.1815E+06
  15569      1     90     83       20.11          0.1815E+06
  15570      1     90     84       20.02          0.1815E+06
  15571      1     90     85       21.84          0.1815E+06
  15572      1     90     86       23.80          0.1815E+06
  15573      1     90     87       25.90          0.1815E+06
  15574      1     90     88       26.50          0.1815E+06
  15575      1     90     89       26.90          0.1815E+06
  15576      1     90     90       27.70          0.1815E+06
  15577      1     90     91       29.40          0.1815E+06
  15578      1     90     92       31.00          0.1815E+06
  15579      1     90     93       31.30          0.1815E+06
  15580      1     90     94       31.30          0.1815E+06
  15581      1     90     95       31.80          0.1815E+06
  15582      1     90     96       32.20          0.1815E+06
  15583      1     90     97       32.10          0.1815E+06
  15584      1     90     98       31.60          0.1815E+06
  15585      1     90     99       31.60          0.1815E+06
  15586      1     90    100       31.80          0.1815E+06
  15587      1     90    101       30.30          0.1815E+06
  15588      1     90    102       25.50          0.1815E+06
  15589      1     90    103       19.60          0.1815E+06
  15590      1     90    104       25.00          0.1815E+06
  15591      1     90    105       29.60          0.1815E+06
  15592      1     90    106       30.90          0.1815E+06
  15593      1     90    107       31.60          0.1815E+06
  15594      1     90    108       32.20          0.1815E+06
  15595      1     90    109       33.70          0.1815E+06
  15596      1     90    110       35.80          0.1815E+06
  15597      1     90    111       36.80          0.1815E+06
  15598      1     90    112       37.70          0.1815E+06
  15599      1     90    113       38.00          0.1815E+06
  15600      1     90    114       38.40          0.1815E+06
  15601      1     90    115       38.60          0.1815E+06
  15602      1     90    116       38.90          0.1815E+06
  15603      1     90    117       38.90          0.1815E+06
  15604      1     90    118       38.20          0.1815E+06
  15605      1     90    119       38.20          0.1815E+06
  15606      1     90    120       38.70          0.1815E+06
  15607      1     90    121       39.60          0.1815E+06
  15608      1     90    122       39.90          0.1815E+06
  15609      1     90    123       39.90          0.1815E+06
  15610      1     90    124       40.00          0.1815E+06
  15611      1     90    125       39.50          0.1815E+06
  15612      1     90    126       40.20          0.1815E+06
  15613      1     90    127       42.10          0.1815E+06
  15614      1     90    128       43.70          0.1815E+06
  15615      1     90    129       44.80          0.1815E+06
  15616      1     90    130       46.60          0.1815E+06
  15617      1     90    131       49.30          0.1815E+06
  15618      1     90    132       52.20          0.1815E+06
  15619      1     90    133       54.20          0.1815E+06
  15620      1     90    134       55.90          0.1815E+06
  15621      1     90    135       58.60          0.1815E+06
  15622      1     90    136       59.90          0.1815E+06
  15623      1     90    137       60.70          0.1815E+06
  15624      1     90    138       59.70          0.1815E+06
  15625      1     90    139       57.90          0.1815E+06
  15626      1     90    140       60.40          0.1815E+06
  15627      1     90    141       58.40          0.1815E+06
  15628      1     90    142       56.30          0.1815E+06
  15629      1     90    143       59.90          0.1815E+06
  15630      1     90    144       63.60          0.1815E+06
  15631      1     90    145       66.70          0.1815E+06
  15632      1     90    146       68.20          0.1815E+06
  15633      1     90    147       68.20          0.1815E+06
  15634      1     90    148       67.40          0.1815E+06
  15635      1     90    149       65.50          0.1815E+06
  15636      1     90    150       63.70          0.1815E+06
  15637      1     90    151       60.70          0.1815E+06
  15638      1     90    152       57.80          0.1815E+06
  15639      1     90    153       53.70          0.1815E+06
  15640      1     90    154       49.60          0.1815E+06
  15641      1     90    155       49.50          0.1815E+06
  15642      1     90    156       49.50          0.1815E+06
  15643      1     90    157       48.20          0.1815E+06
  15644      1     90    158       47.20          0.1815E+06
  15645      1     90    159       46.30          0.1815E+06
  15646      1     90    160       45.30          0.1815E+06
  15647      1     90    161       44.60          0.1815E+06
  15648      1     90    162       44.60          0.1815E+06
  15649      1     90    163       45.50          0.1815E+06
  15650      1     90    164       45.60          0.1815E+06
  15651      1     90    165       45.70          0.1815E+06
  15652      1     90    166       45.60          0.1815E+06
  15653      1     90    167       43.30          0.1815E+06
  15654      1     90    168       42.80          0.1815E+06
  15655      1     90    169       43.00          0.1815E+06
  15656      1     90    170       44.50          0.1815E+06
  15657      1     90    171       46.00          0.1815E+06
  15658      1     90    172       47.20          0.1815E+06
  15659      1     90    173       48.30          0.1815E+06
  15660      1     90    174       49.40          0.1815E+06
  15661      1     91      1      -8.970          0.1815E+06
  15662      1     91      2      -8.370          0.1815E+06
  15663      1     91      3      -8.370          0.1815E+06
  15664      1     91      4      -8.170          0.1815E+06
  15665      1     91      5      -8.020          0.1815E+06
  15666      1     91      6      -10.67          0.1815E+06
  15667      1     91      7      -10.47          0.1815E+06
  15668      1     91      8      -10.67          0.1815E+06
  15669      1     91      9      -10.67          0.1815E+06
  15670      1     91     10      -9.570          0.1815E+06
  15671      1     91     11      -8.020          0.1815E+06
  15672      1     91     12      -9.870          0.1815E+06
  15673      1     91     13      -10.07          0.1815E+06
  15674      1     91     14      -9.170          0.1815E+06
  15675      1     91     15      -9.170          0.1815E+06
  15676      1     91     16      -7.770          0.1815E+06
  15677      1     91     17      -7.670          0.1815E+06
  15678      1     91     18      -7.870          0.1815E+06
  15679      1     91     19      -7.470          0.1815E+06
  15680      1     91     20      -6.770          0.1815E+06
  15681      1     91     21      -6.770          0.1815E+06
  15682      1     91     22      -6.370          0.1815E+06
  15683      1     91     23      -6.120          0.1815E+06
  15684      1     91     24      -5.420          0.1815E+06
  15685      1     91     25      -4.470          0.1815E+06
  15686      1     91     26      -4.470          0.1815E+06
  15687      1     91     27      -3.320          0.1815E+06
  15688      1     91     28      -2.770          0.1815E+06
  15689      1     91     29      -2.270          0.1815E+06
  15690      1     91     30      0.4600          0.1815E+06
  15691      1     91     31      0.4600          0.1815E+06
  15692      1     91     32      0.4600          0.1815E+06
  15693      1     91     33      0.9700          0.1815E+06
  15694      1     91     34       1.470          0.1815E+06
  15695      1     91     35       2.480          0.1815E+06
  15696      1     91     36       3.480          0.1815E+06
  15697      1     91     37       4.490          0.1815E+06
  15698      1     91     38       4.490          0.1815E+06
  15699      1     91     39       6.490          0.1815E+06
  15700      1     91     40       14.72          0.1815E+06
  15701      1     91     41       8.820          0.1815E+06
  15702      1     91     42       6.820          0.1815E+06
  15703      1     91     43       7.320          0.1815E+06
  15704      1     91     44       8.020          0.1815E+06
  15705      1     91     45       7.030          0.1815E+06
  15706      1     91     46       9.300          0.1815E+06
  15707      1     91     47       9.060          0.1815E+06
  15708      1     91     48       9.270          0.1815E+06
  15709      1     91     49       8.050          0.1815E+06
  15710      1     91     50       8.650          0.1815E+06
  15711      1     91     51       8.400          0.1815E+06
  15712      1     91     52       9.130          0.1815E+06
  15713      1     91     53       8.630          0.1815E+06
  15714      1     91     54       8.100          0.1815E+06
  15715      1     91     55       7.570          0.1815E+06
  15716      1     91     56       7.320          0.1815E+06
  15717      1     91     57       7.380          0.1815E+06
  15718      1     91     58       8.020          0.1815E+06
  15719      1     91     59       7.300          0.1815E+06
  15720      1     91     60       10.50          0.1815E+06
  15721      1     91     61       11.77          0.1815E+06
  15722      1     91     62       12.86          0.1815E+06
  15723      1     91     63       13.68          0.1815E+06
  15724      1     91     64       13.52          0.1815E+06
  15725      1     91     65       13.31          0.1815E+06
  15726      1     91     66       13.50          0.1815E+06
  15727      1     91     67       13.78          0.1815E+06
  15728      1     91     68       14.14          0.1815E+06
  15729      1     91     69       14.47          0.1815E+06
  15730      1     91     70       15.35          0.1815E+06
  15731      1     91     71       14.55          0.1815E+06
  15732      1     91     72       14.64          0.1815E+06
  15733      1     91     73       14.72          0.1815E+06
  15734      1     91     74       14.69          0.1815E+06
  15735      1     91     75       14.14          0.1815E+06
  15736      1     91     76       15.64          0.1815E+06
  15737      1     91     77       17.30          0.1815E+06
  15738      1     91     78       19.28          0.1815E+06
  15739      1     91     79       18.79          0.1815E+06
  15740      1     91     80       15.00          0.1815E+06
  15741      1     91     81       20.71          0.1815E+06
  15742      1     91     82       22.57          0.1815E+06
  15743      1     91     83       23.97          0.1815E+06
  15744      1     91     84       22.80          0.1815E+06
  15745      1     91     85       22.90          0.1815E+06
  15746      1     91     86       24.20          0.1815E+06
  15747      1     91     87       25.80          0.1815E+06
  15748      1     91     88       27.00          0.1815E+06
  15749      1     91     89       27.70          0.1815E+06
  15750      1     91     90       28.30          0.1815E+06
  15751      1     91     91       29.10          0.1815E+06
  15752      1     91     92       30.40          0.1815E+06
  15753      1     91     93       31.00          0.1815E+06
  15754      1     91     94       31.10          0.1815E+06
  15755      1     91     95       31.30          0.1815E+06
  15756      1     91     96       31.80          0.1815E+06
  15757      1     91     97       31.80          0.1815E+06
  15758      1     91     98       31.30          0.1815E+06
  15759      1     91     99       31.40          0.1815E+06
  15760      1     91    100       31.90          0.1815E+06
  15761      1     91    101       29.20          0.1815E+06
  15762      1     91    102       19.10          0.1815E+06
  15763      1     91    103       20.50          0.1815E+06
  15764      1     91    104       25.80          0.1815E+06
  15765      1     91    105       27.50          0.1815E+06
  15766      1     91    106       29.70          0.1815E+06
  15767      1     91    107       30.60          0.1815E+06
  15768      1     91    108       31.60          0.1815E+06
  15769      1     91    109       33.00          0.1815E+06
  15770      1     91    110       34.80          0.1815E+06
  15771      1     91    111       36.60          0.1815E+06
  15772      1     91    112       37.70          0.1815E+06
  15773      1     91    113       38.10          0.1815E+06
  15774      1     91    114       38.20          0.1815E+06
  15775      1     91    115       38.50          0.1815E+06
  15776      1     91    116       38.80          0.1815E+06
  15777      1     91    117       38.90          0.1815E+06
  15778      1     91    118       38.90          0.1815E+06
  15779      1     91    119       39.00          0.1815E+06
  15780      1     91    120       39.50          0.1815E+06
  15781      1     91    121       40.50          0.1815E+06
  15782      1     91    122       41.20          0.1815E+06
  15783      1     91    123       41.60          0.1815E+06
  15784      1     91    124       41.60          0.1815E+06
  15785      1     91    125       41.50          0.1815E+06
  15786      1     91    126       42.20          0.1815E+06
  15787      1     91    127       43.60          0.1815E+06
  15788      1     91    128       45.10          0.1815E+06
  15789      1     91    129       47.10          0.1815E+06
  15790      1     91    130       49.00          0.1815E+06
  15791      1     91    131       52.10          0.1815E+06
  15792      1     91    132       56.20          0.1815E+06
  15793      1     91    133       59.90          0.1815E+06
  15794      1     91    134       62.30          0.1815E+06
  15795      1     91    135       66.00          0.1815E+06
  15796      1     91    136       67.80          0.1815E+06
  15797      1     91    137       69.30          0.1815E+06
  15798      1     91    138       68.10          0.1815E+06
  15799      1     91    139       65.70          0.1815E+06
  15800      1     91    140       68.00          0.1815E+06
  15801      1     91    141       65.40          0.1815E+06
  15802      1     91    142       62.90          0.1815E+06
  15803      1     91    143       60.40          0.1815E+06
  15804      1     91    144       63.30          0.1815E+06
  15805      1     91    145       66.50          0.1815E+06
  15806      1     91    146       67.60          0.1815E+06
  15807      1     91    147       67.00          0.1815E+06
  15808      1     91    148       64.90          0.1815E+06
  15809      1     91    149       62.70          0.1815E+06
  15810      1     91    150       61.90          0.1815E+06
  15811      1     91    151       59.30          0.1815E+06
  15812      1     91    152       56.10          0.1815E+06
  15813      1     91    153       52.20          0.1815E+06
  15814      1     91    154       48.90          0.1815E+06
  15815      1     91    155       47.50          0.1815E+06
  15816      1     91    156       46.80          0.1815E+06
  15817      1     91    157       45.20          0.1815E+06
  15818      1     91    158       44.90          0.1815E+06
  15819      1     91    159       45.00          0.1815E+06
  15820      1     91    160       44.60          0.1815E+06
  15821      1     91    161       44.30          0.1815E+06
  15822      1     91    162       44.70          0.1815E+06
  15823      1     91    163       46.40          0.1815E+06
  15824      1     91    164       48.00          0.1815E+06
  15825      1     91    165       47.90          0.1815E+06
  15826      1     91    166       47.10          0.1815E+06
  15827      1     91    167       45.40          0.1815E+06
  15828      1     91    168       44.10          0.1815E+06
  15829      1     91    169       43.20          0.1815E+06
  15830      1     91    170       44.10          0.1815E+06
  15831      1     91    171       45.80          0.1815E+06
  15832      1     91    172       46.60          0.1815E+06
  15833      1     91    173       47.40          0.1815E+06
  15834      1     91    174       48.60          0.1815E+06
  15835      1     92      1      -7.370          0.1815E+06
  15836      1     92      2      -7.370          0.1815E+06
  15837      1     92      3      -7.370          0.1815E+06
  15838      1     92      4      -7.770          0.1815E+06
  15839      1     92      5      -10.07          0.1815E+06
  15840      1     92      6      -10.87          0.1815E+06
  15841      1     92      7      -10.48          0.1815E+06
  15842      1     92      8      -10.28          0.1815E+06
  15843      1     92      9      -10.28          0.1815E+06
  15844      1     92     10      -9.380          0.1815E+06
  15845      1     92     11      -8.980          0.1815E+06
  15846      1     92     12      -9.870          0.1815E+06
  15847      1     92     13      -10.07          0.1815E+06
  15848      1     92     14      -8.470          0.1815E+06
  15849      1     92     15      -8.470          0.1815E+06
  15850      1     92     16      -8.370          0.1815E+06
  15851      1     92     17      -8.120          0.1815E+06
  15852      1     92     18      -6.280          0.1815E+06
  15853      1     92     19      -7.060          0.1815E+06
  15854      1     92     20      -6.740          0.1815E+06
  15855      1     92     21      -6.740          0.1815E+06
  15856      1     92     22      -6.820          0.1815E+06
  15857      1     92     23      -6.480          0.1815E+06
  15858      1     92     24      -6.110          0.1815E+06
  15859      1     92     25      -5.110          0.1815E+06
  15860      1     92     26      -5.110          0.1815E+06
  15861      1     92     27      -3.560          0.1815E+06
  15862      1     92     28      -2.120          0.1815E+06
  15863      1     92     29      -1.200          0.1815E+06
  15864      1     92     30      0.4600          0.1815E+06
  15865      1     92     31      0.4700          0.1815E+06
  15866      1     92     32      0.4700          0.1815E+06
  15867      1     92     33      0.4700          0.1815E+06
  15868      1     92     34      0.4700          0.1815E+06
  15869      1     92     35       1.480          0.1815E+06
  15870      1     92     36       3.480          0.1815E+06
  15871      1     92     37       4.490          0.1815E+06
  15872      1     92     38       4.490          0.1815E+06
  15873      1     92     39       6.490          0.1815E+06
  15874      1     92     40       11.40          0.1815E+06
  15875      1     92     41       8.350          0.1815E+06
  15876      1     92     42       8.230          0.1815E+06
  15877      1     92     43       9.170          0.1815E+06
  15878      1     92     44       7.170          0.1815E+06
  15879      1     92     45       7.500          0.1815E+06
  15880      1     92     46       7.210          0.1815E+06
  15881      1     92     47       7.820          0.1815E+06
  15882      1     92     48       8.630          0.1815E+06
  15883      1     92     49       9.060          0.1815E+06
  15884      1     92     50       9.800          0.1815E+06
  15885      1     92     51       8.350          0.1815E+06
  15886      1     92     52       9.170          0.1815E+06
  15887      1     92     53       9.630          0.1815E+06
  15888      1     92     54       8.880          0.1815E+06
  15889      1     92     55       8.420          0.1815E+06
  15890      1     92     56       7.710          0.1815E+06
  15891      1     92     57       7.480          0.1815E+06
  15892      1     92     58       8.310          0.1815E+06
  15893      1     92     59       7.550          0.1815E+06
  15894      1     92     60       10.00          0.1815E+06
  15895      1     92     61       12.00          0.1815E+06
  15896      1     92     62       12.85          0.1815E+06
  15897      1     92     63       13.59          0.1815E+06
  15898      1     92     64       13.81          0.1815E+06
  15899      1     92     65       13.97          0.1815E+06
  15900      1     92     66       14.35          0.1815E+06
  15901      1     92     67       14.43          0.1815E+06
  15902      1     92     68       14.46          0.1815E+06
  15903      1     92     69       14.43          0.1815E+06
  15904      1     92     70       14.68          0.1815E+06
  15905      1     92     71       14.31          0.1815E+06
  15906      1     92     72       14.05          0.1815E+06
  15907      1     92     73       13.18          0.1815E+06
  15908      1     92     74       13.32          0.1815E+06
  15909      1     92     75       14.15          0.1815E+06
  15910      1     92     76       15.32          0.1815E+06
  15911      1     92     77       16.48          0.1815E+06
  15912      1     92     78       17.01          0.1815E+06
  15913      1     92     79       15.06          0.1815E+06
  15914      1     92     80       20.39          0.1815E+06
  15915      1     92     81       22.27          0.1815E+06
  15916      1     92     82       20.39          0.1815E+06
  15917      1     92     83       22.96          0.1815E+06
  15918      1     92     84       23.06          0.1815E+06
  15919      1     92     85       23.20          0.1815E+06
  15920      1     92     86       24.40          0.1815E+06
  15921      1     92     87       25.70          0.1815E+06
  15922      1     92     88       26.90          0.1815E+06
  15923      1     92     89       27.70          0.1815E+06
  15924      1     92     90       28.20          0.1815E+06
  15925      1     92     91       28.90          0.1815E+06
  15926      1     92     92       30.40          0.1815E+06
  15927      1     92     93       30.80          0.1815E+06
  15928      1     92     94       30.80          0.1815E+06
  15929      1     92     95       31.00          0.1815E+06
  15930      1     92     96       31.40          0.1815E+06
  15931      1     92     97       31.60          0.1815E+06
  15932      1     92     98       31.10          0.1815E+06
  15933      1     92     99       29.70          0.1815E+06
  15934      1     92    100       29.00          0.1815E+06
  15935      1     92    101       22.90          0.1815E+06
  15936      1     92    102       14.70          0.1815E+06
  15937      1     92    103       23.90          0.1815E+06
  15938      1     92    104       25.60          0.1815E+06
  15939      1     92    105       29.90          0.1815E+06
  15940      1     92    106       30.90          0.1815E+06
  15941      1     92    107       30.10          0.1815E+06
  15942      1     92    108       31.30          0.1815E+06
  15943      1     92    109       33.20          0.1815E+06
  15944      1     92    110       34.40          0.1815E+06
  15945      1     92    111       35.40          0.1815E+06
  15946      1     92    112       36.90          0.1815E+06
  15947      1     92    113       37.50          0.1815E+06
  15948      1     92    114       37.50          0.1815E+06
  15949      1     92    115       37.60          0.1815E+06
  15950      1     92    116       38.40          0.1815E+06
  15951      1     92    117       39.10          0.1815E+06
  15952      1     92    118       39.50          0.1815E+06
  15953      1     92    119       39.70          0.1815E+06
  15954      1     92    120       39.90          0.1815E+06
  15955      1     92    121       40.70          0.1815E+06
  15956      1     92    122       41.60          0.1815E+06
  15957      1     92    123       42.20          0.1815E+06
  15958      1     92    124       42.40          0.1815E+06
  15959      1     92    125       42.60          0.1815E+06
  15960      1     92    126       44.60          0.1815E+06
  15961      1     92    127       45.60          0.1815E+06
  15962      1     92    128       47.60          0.1815E+06
  15963      1     92    129       50.30          0.1815E+06
  15964      1     92    130       52.00          0.1815E+06
  15965      1     92    131       54.60          0.1815E+06
  15966      1     92    132       59.40          0.1815E+06
  15967      1     92    133       64.70          0.1815E+06
  15968      1     92    134       69.10          0.1815E+06
  15969      1     92    135       72.40          0.1815E+06
  15970      1     92    136       74.00          0.1815E+06
  15971      1     92    137       74.80          0.1815E+06
  15972      1     92    138       73.20          0.1815E+06
  15973      1     92    139       71.10          0.1815E+06
  15974      1     92    140       74.20          0.1815E+06
  15975      1     92    141       72.40          0.1815E+06
  15976      1     92    142       70.00          0.1815E+06
  15977      1     92    143       65.10          0.1815E+06
  15978      1     92    144       68.00          0.1815E+06
  15979      1     92    145       69.40          0.1815E+06
  15980      1     92    146       68.90          0.1815E+06
  15981      1     92    147       65.20          0.1815E+06
  15982      1     92    148       60.00          0.1815E+06
  15983      1     92    149       58.30          0.1815E+06
  15984      1     92    150       55.50          0.1815E+06
  15985      1     92    151       54.20          0.1815E+06
  15986      1     92    152       51.10          0.1815E+06
  15987      1     92    153       49.40          0.1815E+06
  15988      1     92    154       48.30          0.1815E+06
  15989      1     92    155       47.60          0.1815E+06
  15990      1     92    156       46.10          0.1815E+06
  15991      1     92    157       44.50          0.1815E+06
  15992      1     92    158       44.30          0.1815E+06
  15993      1     92    159       44.70          0.1815E+06
  15994      1     92    160       44.50          0.1815E+06
  15995      1     92    161       44.40          0.1815E+06
  15996      1     92    162       45.90          0.1815E+06
  15997      1     92    163       48.40          0.1815E+06
  15998      1     92    164       50.10          0.1815E+06
  15999      1     92    165       49.60          0.1815E+06
  16000      1     92    166       48.10          0.1815E+06
  16001      1     92    167       46.60          0.1815E+06
  16002      1     92    168       44.60          0.1815E+06
  16003      1     92    169       43.40          0.1815E+06
  16004      1     92    170       43.80          0.1815E+06
  16005      1     92    171       45.10          0.1815E+06
  16006      1     92    172       45.30          0.1815E+06
  16007      1     92    173       45.10          0.1815E+06
  16008      1     92    174       47.40          0.1815E+06
  16009      1     93      1      -7.280          0.1815E+06
  16010      1     93      2      -7.970          0.1815E+06
  16011      1     93      3      -7.970          0.1815E+06
  16012      1     93      4      -8.770          0.1815E+06
  16013      1     93      5      -10.18          0.1815E+06
  16014      1     93      6      -10.88          0.1815E+06
  16015      1     93      7      -10.48          0.1815E+06
  16016      1     93      8      -10.28          0.1815E+06
  16017      1     93      9      -10.28          0.1815E+06
  16018      1     93     10      -9.380          0.1815E+06
  16019      1     93     11      -8.980          0.1815E+06
  16020      1     93     12      -9.580          0.1815E+06
  16021      1     93     13      -10.08          0.1815E+06
  16022      1     93     14      -9.630          0.1815E+06
  16023      1     93     15      -9.630          0.1815E+06
  16024      1     93     16      -9.180          0.1815E+06
  16025      1     93     17      -8.780          0.1815E+06
  16026      1     93     18      -8.580          0.1815E+06
  16027      1     93     19      -7.580          0.1815E+06
  16028      1     93     20      -6.180          0.1815E+06
  16029      1     93     21      -6.180          0.1815E+06
  16030      1     93     22      -6.780          0.1815E+06
  16031      1     93     23      -6.080          0.1815E+06
  16032      1     93     24      -5.680          0.1815E+06
  16033      1     93     25      -5.180          0.1815E+06
  16034      1     93     26      -5.180          0.1815E+06
  16035      1     93     27      -3.410          0.1815E+06
  16036      1     93     28      -1.380          0.1815E+06
  16037      1     93     29      0.4500          0.1815E+06
  16038      1     93     30      0.4600          0.1815E+06
  16039      1     93     31      0.4700          0.1815E+06
  16040      1     93     32      0.4700          0.1815E+06
  16041      1     93     33      0.4700          0.1815E+06
  16042      1     93     34      0.4700          0.1815E+06
  16043      1     93     35       1.480          0.1815E+06
  16044      1     93     36       2.480          0.1815E+06
  16045      1     93     37       3.490          0.1815E+06
  16046      1     93     38       3.490          0.1815E+06
  16047      1     93     39       5.490          0.1815E+06
  16048      1     93     40       5.900          0.1815E+06
  16049      1     93     41       16.59          0.1815E+06
  16050      1     93     42       9.850          0.1815E+06
  16051      1     93     43       7.400          0.1815E+06
  16052      1     93     44       7.650          0.1815E+06
  16053      1     93     45       8.060          0.1815E+06
  16054      1     93     46       7.750          0.1815E+06
  16055      1     93     47       7.820          0.1815E+06
  16056      1     93     48       8.690          0.1815E+06
  16057      1     93     49       8.390          0.1815E+06
  16058      1     93     50       8.190          0.1815E+06
  16059      1     93     51       8.880          0.1815E+06
  16060      1     93     52       8.980          0.1815E+06
  16061      1     93     53       8.600          0.1815E+06
  16062      1     93     54       8.880          0.1815E+06
  16063      1     93     55       9.500          0.1815E+06
  16064      1     93     56       8.100          0.1815E+06
  16065      1     93     57       7.670          0.1815E+06
  16066      1     93     58       9.210          0.1815E+06
  16067      1     93     59       7.800          0.1815E+06
  16068      1     93     60       9.520          0.1815E+06
  16069      1     93     61       11.00          0.1815E+06
  16070      1     93     62       11.92          0.1815E+06
  16071      1     93     63       12.76          0.1815E+06
  16072      1     93     64       13.47          0.1815E+06
  16073      1     93     65       14.01          0.1815E+06
  16074      1     93     66       14.15          0.1815E+06
  16075      1     93     67       14.14          0.1815E+06
  16076      1     93     68       14.47          0.1815E+06
  16077      1     93     69       14.26          0.1815E+06
  16078      1     93     70       14.22          0.1815E+06
  16079      1     93     71       14.32          0.1815E+06
  16080      1     93     72       14.42          0.1815E+06
  16081      1     93     73       13.57          0.1815E+06
  16082      1     93     74       11.55          0.1815E+06
  16083      1     93     75       12.61          0.1815E+06
  16084      1     93     76       13.44          0.1815E+06
  16085      1     93     77       13.71          0.1815E+06
  16086      1     93     78       13.56          0.1815E+06
  16087      1     93     79       15.53          0.1815E+06
  16088      1     93     80       18.21          0.1815E+06
  16089      1     93     81       19.69          0.1815E+06
  16090      1     93     82       20.63          0.1815E+06
  16091      1     93     83       21.64          0.1815E+06
  16092      1     93     84       23.43          0.1815E+06
  16093      1     93     85       23.30          0.1815E+06
  16094      1     93     86       24.60          0.1815E+06
  16095      1     93     87       25.90          0.1815E+06
  16096      1     93     88       26.90          0.1815E+06
  16097      1     93     89       27.50          0.1815E+06
  16098      1     93     90       28.00          0.1815E+06
  16099      1     93     91       28.30          0.1815E+06
  16100      1     93     92       29.40          0.1815E+06
  16101      1     93     93       29.30          0.1815E+06
  16102      1     93     94       30.30          0.1815E+06
  16103      1     93     95       30.40          0.1815E+06
  16104      1     93     96       31.10          0.1815E+06
  16105      1     93     97       31.40          0.1815E+06
  16106      1     93     98       31.20          0.1815E+06
  16107      1     93     99       30.20          0.1815E+06
  16108      1     93    100       26.40          0.1815E+06
  16109      1     93    101       21.00          0.1815E+06
  16110      1     93    102       16.20          0.1815E+06
  16111      1     93    103       26.60          0.1815E+06
  16112      1     93    104       29.30          0.1815E+06
  16113      1     93    105       31.00          0.1815E+06
  16114      1     93    106       32.20          0.1815E+06
  16115      1     93    107       32.50          0.1815E+06
  16116      1     93    108       34.20          0.1815E+06
  16117      1     93    109       34.90          0.1815E+06
  16118      1     93    110       35.20          0.1815E+06
  16119      1     93    111       36.00          0.1815E+06
  16120      1     93    112       37.10          0.1815E+06
  16121      1     93    113       37.50          0.1815E+06
  16122      1     93    114       37.80          0.1815E+06
  16123      1     93    115       38.00          0.1815E+06
  16124      1     93    116       38.60          0.1815E+06
  16125      1     93    117       39.50          0.1815E+06
  16126      1     93    118       40.00          0.1815E+06
  16127      1     93    119       40.30          0.1815E+06
  16128      1     93    120       40.70          0.1815E+06
  16129      1     93    121       41.10          0.1815E+06
  16130      1     93    122       41.90          0.1815E+06
  16131      1     93    123       42.50          0.1815E+06
  16132      1     93    124       42.80          0.1815E+06
  16133      1     93    125       43.10          0.1815E+06
  16134      1     93    126       45.00          0.1815E+06
  16135      1     93    127       47.20          0.1815E+06
  16136      1     93    128       49.20          0.1815E+06
  16137      1     93    129       52.40          0.1815E+06
  16138      1     93    130       55.40          0.1815E+06
  16139      1     93    131       58.50          0.1815E+06
  16140      1     93    132       61.70          0.1815E+06
  16141      1     93    133       67.50          0.1815E+06
  16142      1     93    134       73.20          0.1815E+06
  16143      1     93    135       76.80          0.1815E+06
  16144      1     93    136       77.80          0.1815E+06
  16145      1     93    137       78.00          0.1815E+06
  16146      1     93    138       77.40          0.1815E+06
  16147      1     93    139       77.20          0.1815E+06
  16148      1     93    140       77.80          0.1815E+06
  16149      1     93    141       76.10          0.1815E+06
  16150      1     93    142       73.80          0.1815E+06
  16151      1     93    143       68.00          0.1815E+06
  16152      1     93    144       73.00          0.1815E+06
  16153      1     93    145       74.80          0.1815E+06
  16154      1     93    146       74.20          0.1815E+06
  16155      1     93    147       69.20          0.1815E+06
  16156      1     93    148       67.20          0.1815E+06
  16157      1     93    149       63.40          0.1815E+06
  16158      1     93    150       61.10          0.1815E+06
  16159      1     93    151       58.10          0.1815E+06
  16160      1     93    152       51.60          0.1815E+06
  16161      1     93    153       50.10          0.1815E+06
  16162      1     93    154       49.10          0.1815E+06
  16163      1     93    155       49.70          0.1815E+06
  16164      1     93    156       48.50          0.1815E+06
  16165      1     93    157       46.40          0.1815E+06
  16166      1     93    158       44.10          0.1815E+06
  16167      1     93    159       44.40          0.1815E+06
  16168      1     93    160       44.40          0.1815E+06
  16169      1     93    161       44.70          0.1815E+06
  16170      1     93    162       47.10          0.1815E+06
  16171      1     93    163       50.20          0.1815E+06
  16172      1     93    164       51.30          0.1815E+06
  16173      1     93    165       50.90          0.1815E+06
  16174      1     93    166       48.80          0.1815E+06
  16175      1     93    167       46.00          0.1815E+06
  16176      1     93    168       44.00          0.1815E+06
  16177      1     93    169       43.60          0.1815E+06
  16178      1     93    170       43.70          0.1815E+06
  16179      1     93    171       44.00          0.1815E+06
  16180      1     93    172       44.30          0.1815E+06
  16181      1     93    173       44.80          0.1815E+06
  16182      1     93    174       47.00          0.1815E+06
  16183      1     94      1      -8.880          0.1815E+06
  16184      1     94      2      -7.970          0.1815E+06
  16185      1     94      3      -7.970          0.1815E+06
  16186      1     94      4      -8.770          0.1815E+06
  16187      1     94      5      -10.18          0.1815E+06
  16188      1     94      6      -10.88          0.1815E+06
  16189      1     94      7      -10.68          0.1815E+06
  16190      1     94      8      -10.98          0.1815E+06
  16191      1     94      9      -10.98          0.1815E+06
  16192      1     94     10      -10.28          0.1815E+06
  16193      1     94     11      -10.08          0.1815E+06
  16194      1     94     12      -10.38          0.1815E+06
  16195      1     94     13      -10.28          0.1815E+06
  16196      1     94     14      -9.830          0.1815E+06
  16197      1     94     15      -9.830          0.1815E+06
  16198      1     94     16      -9.390          0.1815E+06
  16199      1     94     17      -8.890          0.1815E+06
  16200      1     94     18      -8.890          0.1815E+06
  16201      1     94     19      -6.390          0.1815E+06
  16202      1     94     20      -6.190          0.1815E+06
  16203      1     94     21      -6.190          0.1815E+06
  16204      1     94     22      -5.790          0.1815E+06
  16205      1     94     23      -5.440          0.1815E+06
  16206      1     94     24      -5.280          0.1815E+06
  16207      1     94     25      -4.680          0.1815E+06
  16208      1     94     26      -4.680          0.1815E+06
  16209      1     94     27      -3.410          0.1815E+06
  16210      1     94     28      -1.380          0.1815E+06
  16211      1     94     29      0.4500          0.1815E+06
  16212      1     94     30      0.4600          0.1815E+06
  16213      1     94     31      0.4600          0.1815E+06
  16214      1     94     32      0.4600          0.1815E+06
  16215      1     94     33      0.4200          0.1815E+06
  16216      1     94     34      0.4700          0.1815E+06
  16217      1     94     35      0.4900          0.1815E+06
  16218      1     94     36       2.490          0.1815E+06
  16219      1     94     37       3.490          0.1815E+06
  16220      1     94     38       3.490          0.1815E+06
  16221      1     94     39       4.500          0.1815E+06
  16222      1     94     40       5.500          0.1815E+06
  16223      1     94     41       6.500          0.1815E+06
  16224      1     94     42       8.920          0.1815E+06
  16225      1     94     43       8.530          0.1815E+06
  16226      1     94     44       8.270          0.1815E+06
  16227      1     94     45       7.230          0.1815E+06
  16228      1     94     46       7.730          0.1815E+06
  16229      1     94     47       7.840          0.1815E+06
  16230      1     94     48       9.220          0.1815E+06
  16231      1     94     49       8.510          0.1815E+06
  16232      1     94     50       8.850          0.1815E+06
  16233      1     94     51       9.030          0.1815E+06
  16234      1     94     52       8.720          0.1815E+06
  16235      1     94     53       9.000          0.1815E+06
  16236      1     94     54       8.890          0.1815E+06
  16237      1     94     55       10.02          0.1815E+06
  16238      1     94     56       8.820          0.1815E+06
  16239      1     94     57       7.960          0.1815E+06
  16240      1     94     58       8.350          0.1815E+06
  16241      1     94     59       7.500          0.1815E+06
  16242      1     94     60       8.280          0.1815E+06
  16243      1     94     61       9.720          0.1815E+06
  16244      1     94     62       11.68          0.1815E+06
  16245      1     94     63       12.59          0.1815E+06
  16246      1     94     64       13.18          0.1815E+06
  16247      1     94     65       13.72          0.1815E+06
  16248      1     94     66       13.90          0.1815E+06
  16249      1     94     67       13.73          0.1815E+06
  16250      1     94     68       13.97          0.1815E+06
  16251      1     94     69       14.01          0.1815E+06
  16252      1     94     70       14.11          0.1815E+06
  16253      1     94     71       14.06          0.1815E+06
  16254      1     94     72       14.15          0.1815E+06
  16255      1     94     73       13.65          0.1815E+06
  16256      1     94     74       11.52          0.1815E+06
  16257      1     94     75       11.31          0.1815E+06
  16258      1     94     76       10.73          0.1815E+06
  16259      1     94     77       11.52          0.1815E+06
  16260      1     94     78       15.27          0.1815E+06
  16261      1     94     79       16.31          0.1815E+06
  16262      1     94     80       16.89          0.1815E+06
  16263      1     94     81       18.75          0.1815E+06
  16264      1     94     82       17.84          0.1815E+06
  16265      1     94     83       21.68          0.1815E+06
  16266      1     94     84       23.02          0.1815E+06
  16267      1     94     85       23.70          0.1815E+06
  16268      1     94     86       25.50          0.1815E+06
  16269      1     94     87       26.20          0.1815E+06
  16270      1     94     88       26.40          0.1815E+06
  16271      1     94     89       27.10          0.1815E+06
  16272      1     94     90       27.80          0.1815E+06
  16273      1     94     91       27.90          0.1815E+06
  16274      1     94     92       27.40          0.1815E+06
  16275      1     94     93       27.10          0.1815E+06
  16276      1     94     94       27.80          0.1815E+06
  16277      1     94     95       29.10          0.1815E+06
  16278      1     94     96       31.00          0.1815E+06
  16279      1     94     97       32.00          0.1815E+06
  16280      1     94     98       31.80          0.1815E+06
  16281      1     94     99       30.50          0.1815E+06
  16282      1     94    100       27.20          0.1815E+06
  16283      1     94    101       20.10          0.1815E+06
  16284      1     94    102       16.00          0.1815E+06
  16285      1     94    103       25.10          0.1815E+06
  16286      1     94    104       29.70          0.1815E+06
  16287      1     94    105       31.50          0.1815E+06
  16288      1     94    106       32.50          0.1815E+06
  16289      1     94    107       33.40          0.1815E+06
  16290      1     94    108       34.60          0.1815E+06
  16291      1     94    109       35.70          0.1815E+06
  16292      1     94    110       36.20          0.1815E+06
  16293      1     94    111       37.30          0.1815E+06
  16294      1     94    112       38.10          0.1815E+06
  16295      1     94    113       38.20          0.1815E+06
  16296      1     94    114       38.40          0.1815E+06
  16297      1     94    115       38.70          0.1815E+06
  16298      1     94    116       39.00          0.1815E+06
  16299      1     94    117       39.70          0.1815E+06
  16300      1     94    118       40.40          0.1815E+06
  16301      1     94    119       40.90          0.1815E+06
  16302      1     94    120       41.20          0.1815E+06
  16303      1     94    121       41.70          0.1815E+06
  16304      1     94    122       42.30          0.1815E+06
  16305      1     94    123       42.90          0.1815E+06
  16306      1     94    124       43.30          0.1815E+06
  16307      1     94    125       43.80          0.1815E+06
  16308      1     94    126       45.30          0.1815E+06
  16309      1     94    127       47.70          0.1815E+06
  16310      1     94    128       50.70          0.1815E+06
  16311      1     94    129       54.30          0.1815E+06
  16312      1     94    130       58.30          0.1815E+06
  16313      1     94    131       62.40          0.1815E+06
  16314      1     94    132       65.90          0.1815E+06
  16315      1     94    133       69.80          0.1815E+06
  16316      1     94    134       75.50          0.1815E+06
  16317      1     94    135       79.00          0.1815E+06
  16318      1     94    136       80.20          0.1815E+06
  16319      1     94    137       80.40          0.1815E+06
  16320      1     94    138       79.40          0.1815E+06
  16321      1     94    139       80.50          0.1815E+06
  16322      1     94    140       79.90          0.1815E+06
  16323      1     94    141       79.00          0.1815E+06
  16324      1     94    142       75.30          0.1815E+06
  16325      1     94    143       71.60          0.1815E+06
  16326      1     94    144       75.80          0.1815E+06
  16327      1     94    145       78.20          0.1815E+06
  16328      1     94    146       78.60          0.1815E+06
  16329      1     94    147       77.30          0.1815E+06
  16330      1     94    148       76.70          0.1815E+06
  16331      1     94    149       73.20          0.1815E+06
  16332      1     94    150       69.80          0.1815E+06
  16333      1     94    151       64.60          0.1815E+06
  16334      1     94    152       59.00          0.1815E+06
  16335      1     94    153       54.10          0.1815E+06
  16336      1     94    154       53.00          0.1815E+06
  16337      1     94    155       51.60          0.1815E+06
  16338      1     94    156       49.20          0.1815E+06
  16339      1     94    157       47.20          0.1815E+06
  16340      1     94    158       45.20          0.1815E+06
  16341      1     94    159       44.70          0.1815E+06
  16342      1     94    160       44.70          0.1815E+06
  16343      1     94    161       45.20          0.1815E+06
  16344      1     94    162       47.60          0.1815E+06
  16345      1     94    163       50.10          0.1815E+06
  16346      1     94    164       50.50          0.1815E+06
  16347      1     94    165       50.30          0.1815E+06
  16348      1     94    166       47.30          0.1815E+06
  16349      1     94    167       44.50          0.1815E+06
  16350      1     94    168       43.90          0.1815E+06
  16351      1     94    169       43.60          0.1815E+06
  16352      1     94    170       43.30          0.1815E+06
  16353      1     94    171       43.30          0.1815E+06
  16354      1     94    172       43.70          0.1815E+06
  16355      1     94    173       44.70          0.1815E+06
  16356      1     94    174       46.60          0.1815E+06
  16357      1     95      1      -8.880          0.1815E+06
  16358      1     95      2      -7.970          0.1815E+06
  16359      1     95      3      -7.970          0.1815E+06
  16360      1     95      4      -8.770          0.1815E+06
  16361      1     95      5      -10.18          0.1815E+06
  16362      1     95      6      -10.88          0.1815E+06
  16363      1     95      7      -10.68          0.1815E+06
  16364      1     95      8      -10.98          0.1815E+06
  16365      1     95      9      -10.98          0.1815E+06
  16366      1     95     10      -10.28          0.1815E+06
  16367      1     95     11      -10.08          0.1815E+06
  16368      1     95     12      -10.38          0.1815E+06
  16369      1     95     13      -10.28          0.1815E+06
  16370      1     95     14      -9.830          0.1815E+06
  16371      1     95     15      -9.830          0.1815E+06
  16372      1     95     16      -9.390          0.1815E+06
  16373      1     95     17      -8.890          0.1815E+06
  16374      1     95     18      -8.890          0.1815E+06
  16375      1     95     19      -6.390          0.1815E+06
  16376      1     95     20      -6.190          0.1815E+06
  16377      1     95     21      -6.190          0.1815E+06
  16378      1     95     22      -5.790          0.1815E+06
  16379      1     95     23      -5.440          0.1815E+06
  16380      1     95     24      -5.280          0.1815E+06
  16381      1     95     25      -4.680          0.1815E+06
  16382      1     95     26      -4.680          0.1815E+06
  16383      1     95     27      -3.410          0.1815E+06
  16384      1     95     28      -1.380          0.1815E+06
  16385      1     95     29      0.4500          0.1815E+06
  16386      1     95     30      0.4600          0.1815E+06
  16387      1     95     31      0.4600          0.1815E+06
  16388      1     95     32      0.4600          0.1815E+06
  16389      1     95     33      0.4200          0.1815E+06
  16390      1     95     34      0.4700          0.1815E+06
  16391      1     95     35      0.4900          0.1815E+06
  16392      1     95     36       2.490          0.1815E+06
  16393      1     95     37       3.490          0.1815E+06
  16394      1     95     38       3.490          0.1815E+06
  16395      1     95     39       4.500          0.1815E+06
  16396      1     95     40       5.500          0.1815E+06
  16397      1     95     41       6.500          0.1815E+06
  16398      1     95     42       14.92          0.1815E+06
  16399      1     95     43       7.510          0.1815E+06
  16400      1     95     44       8.360          0.1815E+06
  16401      1     95     45       9.260          0.1815E+06
  16402      1     95     46       8.460          0.1815E+06
  16403      1     95     47       8.170          0.1815E+06
  16404      1     95     48       8.150          0.1815E+06
  16405      1     95     49       8.430          0.1815E+06
  16406      1     95     50       8.720          0.1815E+06
  16407      1     95     51       8.750          0.1815E+06
  16408      1     95     52       8.980          0.1815E+06
  16409      1     95     53       8.800          0.1815E+06
  16410      1     95     54       9.260          0.1815E+06
  16411      1     95     55       8.770          0.1815E+06
  16412      1     95     56       9.390          0.1815E+06
  16413      1     95     57       8.350          0.1815E+06
  16414      1     95     58       8.220          0.1815E+06
  16415      1     95     59       7.340          0.1815E+06
  16416      1     95     60       7.860          0.1815E+06
  16417      1     95     61       9.050          0.1815E+06
  16418      1     95     62       10.77          0.1815E+06
  16419      1     95     63       12.22          0.1815E+06
  16420      1     95     64       13.05          0.1815E+06
  16421      1     95     65       13.64          0.1815E+06
  16422      1     95     66       13.67          0.1815E+06
  16423      1     95     67       13.60          0.1815E+06
  16424      1     95     68       13.60          0.1815E+06
  16425      1     95     69       13.43          0.1815E+06
  16426      1     95     70       13.40          0.1815E+06
  16427      1     95     71       13.11          0.1815E+06
  16428      1     95     72       12.85          0.1815E+06
  16429      1     95     73       12.68          0.1815E+06
  16430      1     95     74       9.720          0.1815E+06
  16431      1     95     75       11.32          0.1815E+06
  16432      1     95     76       12.93          0.1815E+06
  16433      1     95     77       14.93          0.1815E+06
  16434      1     95     78       15.64          0.1815E+06
  16435      1     95     79       16.46          0.1815E+06
  16436      1     95     80       16.37          0.1815E+06
  16437      1     95     81       16.03          0.1815E+06
  16438      1     95     82       17.81          0.1815E+06
  16439      1     95     83       19.80          0.1815E+06
  16440      1     95     84       21.89          0.1815E+06
  16441      1     95     85       24.10          0.1815E+06
  16442      1     95     86       25.70          0.1815E+06
  16443      1     95     87       25.10          0.1815E+06
  16444      1     95     88       25.10          0.1815E+06
  16445      1     95     89       26.20          0.1815E+06
  16446      1     95     90       26.90          0.1815E+06
  16447      1     95     91       27.00          0.1815E+06
  16448      1     95     92       26.20          0.1815E+06
  16449      1     95     93       25.00          0.1815E+06
  16450      1     95     94       25.60          0.1815E+06
  16451      1     95     95       28.60          0.1815E+06
  16452      1     95     96       31.00          0.1815E+06
  16453      1     95     97       32.10          0.1815E+06
  16454      1     95     98       32.00          0.1815E+06
  16455      1     95     99       31.10          0.1815E+06
  16456      1     95    100       27.60          0.1815E+06
  16457      1     95    101       19.50          0.1815E+06
  16458      1     95    102       14.60          0.1815E+06
  16459      1     95    103       23.90          0.1815E+06
  16460      1     95    104       28.90          0.1815E+06
  16461      1     95    105       31.50          0.1815E+06
  16462      1     95    106       32.60          0.1815E+06
  16463      1     95    107       33.10          0.1815E+06
  16464      1     95    108       33.70          0.1815E+06
  16465      1     95    109       35.50          0.1815E+06
  16466      1     95    110       36.70          0.1815E+06
  16467      1     95    111       37.50          0.1815E+06
  16468      1     95    112       38.40          0.1815E+06
  16469      1     95    113       38.70          0.1815E+06
  16470      1     95    114       38.80          0.1815E+06
  16471      1     95    115       39.00          0.1815E+06
  16472      1     95    116       39.10          0.1815E+06
  16473      1     95    117       39.50          0.1815E+06
  16474      1     95    118       40.40          0.1815E+06
  16475      1     95    119       41.10          0.1815E+06
  16476      1     95    120       41.60          0.1815E+06
  16477      1     95    121       42.10          0.1815E+06
  16478      1     95    122       42.70          0.1815E+06
  16479      1     95    123       43.20          0.1815E+06
  16480      1     95    124       43.60          0.1815E+06
  16481      1     95    125       44.40          0.1815E+06
  16482      1     95    126       46.30          0.1815E+06
  16483      1     95    127       48.70          0.1815E+06
  16484      1     95    128       51.90          0.1815E+06
  16485      1     95    129       55.70          0.1815E+06
  16486      1     95    130       60.10          0.1815E+06
  16487      1     95    131       65.60          0.1815E+06
  16488      1     95    132       70.60          0.1815E+06
  16489      1     95    133       74.40          0.1815E+06
  16490      1     95    134       77.60          0.1815E+06
  16491      1     95    135       81.00          0.1815E+06
  16492      1     95    136       82.30          0.1815E+06
  16493      1     95    137       82.30          0.1815E+06
  16494      1     95    138       81.60          0.1815E+06
  16495      1     95    139       82.00          0.1815E+06
  16496      1     95    140       81.70          0.1815E+06
  16497      1     95    141       80.00          0.1815E+06
  16498      1     95    142       76.40          0.1815E+06
  16499      1     95    143       74.40          0.1815E+06
  16500      1     95    144       76.70          0.1815E+06
  16501      1     95    145       80.20          0.1815E+06
  16502      1     95    146       81.20          0.1815E+06
  16503      1     95    147       80.90          0.1815E+06
  16504      1     95    148       79.90          0.1815E+06
  16505      1     95    149       77.70          0.1815E+06
  16506      1     95    150       74.70          0.1815E+06
  16507      1     95    151       70.00          0.1815E+06
  16508      1     95    152       62.20          0.1815E+06
  16509      1     95    153       58.30          0.1815E+06
  16510      1     95    154       56.30          0.1815E+06
  16511      1     95    155       52.30          0.1815E+06
  16512      1     95    156       49.20          0.1815E+06
  16513      1     95    157       48.40          0.1815E+06
  16514      1     95    158       47.60          0.1815E+06
  16515      1     95    159       46.80          0.1815E+06
  16516      1     95    160       46.50          0.1815E+06
  16517      1     95    161       46.90          0.1815E+06
  16518      1     95    162       47.80          0.1815E+06
  16519      1     95    163       48.70          0.1815E+06
  16520      1     95    164       48.80          0.1815E+06
  16521      1     95    165       47.20          0.1815E+06
  16522      1     95    166       44.60          0.1815E+06
  16523      1     95    167       43.80          0.1815E+06
  16524      1     95    168       43.60          0.1815E+06
  16525      1     95    169       43.20          0.1815E+06
  16526      1     95    170       42.80          0.1815E+06
  16527      1     95    171       42.60          0.1815E+06
  16528      1     95    172       43.30          0.1815E+06
  16529      1     95    173       44.90          0.1815E+06
  16530      1     95    174       46.10          0.1815E+06
  16531      1     96      1      -8.880          0.1815E+06
  16532      1     96      2      -9.380          0.1815E+06
  16533      1     96      3      -9.380          0.1815E+06
  16534      1     96      4      -9.680          0.1815E+06
  16535      1     96      5      -10.28          0.1815E+06
  16536      1     96      6      -10.58          0.1815E+06
  16537      1     96      7      -10.88          0.1815E+06
  16538      1     96      8      -11.09          0.1815E+06
  16539      1     96      9      -11.09          0.1815E+06
  16540      1     96     10      -11.09          0.1815E+06
  16541      1     96     11      -11.08          0.1815E+06
  16542      1     96     12      -10.69          0.1815E+06
  16543      1     96     13      -10.49          0.1815E+06
  16544      1     96     14      -9.990          0.1815E+06
  16545      1     96     15      -9.990          0.1815E+06
  16546      1     96     16      -9.790          0.1815E+06
  16547      1     96     17      -8.700          0.1815E+06
  16548      1     96     18      -8.900          0.1815E+06
  16549      1     96     19      -7.700          0.1815E+06
  16550      1     96     20      -7.090          0.1815E+06
  16551      1     96     21      -7.090          0.1815E+06
  16552      1     96     22      -6.690          0.1815E+06
  16553      1     96     23      -5.440          0.1815E+06
  16554      1     96     24      -5.280          0.1815E+06
  16555      1     96     25      -4.680          0.1815E+06
  16556      1     96     26      -4.680          0.1815E+06
  16557      1     96     27      -3.950          0.1815E+06
  16558      1     96     28      -3.080          0.1815E+06
  16559      1     96     29      0.4600          0.1815E+06
  16560      1     96     30      0.4600          0.1815E+06
  16561      1     96     31      0.4700          0.1815E+06
  16562      1     96     32      0.4700          0.1815E+06
  16563      1     96     33      0.4700          0.1815E+06
  16564      1     96     34      0.4800          0.1815E+06
  16565      1     96     35      0.4800          0.1815E+06
  16566      1     96     36       1.480          0.1815E+06
  16567      1     96     37       2.490          0.1815E+06
  16568      1     96     38       2.490          0.1815E+06
  16569      1     96     39       3.500          0.1815E+06
  16570      1     96     40       4.500          0.1815E+06
  16571      1     96     41       5.510          0.1815E+06
  16572      1     96     42       7.520          0.1815E+06
  16573      1     96     43       9.840          0.1815E+06
  16574      1     96     44       9.060          0.1815E+06
  16575      1     96     45       8.020          0.1815E+06
  16576      1     96     46       7.750          0.1815E+06
  16577      1     96     47       9.350          0.1815E+06
  16578      1     96     48       8.060          0.1815E+06
  16579      1     96     49       8.500          0.1815E+06
  16580      1     96     50       8.750          0.1815E+06
  16581      1     96     51       10.31          0.1815E+06
  16582      1     96     52       8.780          0.1815E+06
  16583      1     96     53       8.710          0.1815E+06
  16584      1     96     54       8.560          0.1815E+06
  16585      1     96     55       9.110          0.1815E+06
  16586      1     96     56       9.430          0.1815E+06
  16587      1     96     57       9.230          0.1815E+06
  16588      1     96     58       8.470          0.1815E+06
  16589      1     96     59       7.730          0.1815E+06
  16590      1     96     60       7.530          0.1815E+06
  16591      1     96     61       8.000          0.1815E+06
  16592      1     96     62       10.39          0.1815E+06
  16593      1     96     63       12.10          0.1815E+06
  16594      1     96     64       12.55          0.1815E+06
  16595      1     96     65       12.64          0.1815E+06
  16596      1     96     66       13.57          0.1815E+06
  16597      1     96     67       13.97          0.1815E+06
  16598      1     96     68       13.67          0.1815E+06
  16599      1     96     69       13.06          0.1815E+06
  16600      1     96     70       12.93          0.1815E+06
  16601      1     96     71       12.72          0.1815E+06
  16602      1     96     72       12.14          0.1815E+06
  16603      1     96     73       10.85          0.1815E+06
  16604      1     96     74       9.800          0.1815E+06
  16605      1     96     75       12.60          0.1815E+06
  16606      1     96     76       14.57          0.1815E+06
  16607      1     96     77       14.93          0.1815E+06
  16608      1     96     78       15.27          0.1815E+06
  16609      1     96     79       16.01          0.1815E+06
  16610      1     96     80       15.65          0.1815E+06
  16611      1     96     81       15.89          0.1815E+06
  16612      1     96     82       16.37          0.1815E+06
  16613      1     96     83       18.04          0.1815E+06
  16614      1     96     84       20.80          0.1815E+06
  16615      1     96     85       23.90          0.1815E+06
  16616      1     96     86       24.80          0.1815E+06
  16617      1     96     87       24.10          0.1815E+06
  16618      1     96     88       23.50          0.1815E+06
  16619      1     96     89       23.90          0.1815E+06
  16620      1     96     90       24.40          0.1815E+06
  16621      1     96     91       24.90          0.1815E+06
  16622      1     96     92       23.60          0.1815E+06
  16623      1     96     93       22.00          0.1815E+06
  16624      1     96     94       24.80          0.1815E+06
  16625      1     96     95       27.40          0.1815E+06
  16626      1     96     96       29.70          0.1815E+06
  16627      1     96     97       30.40          0.1815E+06
  16628      1     96     98       30.20          0.1815E+06
  16629      1     96     99       29.80          0.1815E+06
  16630      1     96    100       27.90          0.1815E+06
  16631      1     96    101       22.60          0.1815E+06
  16632      1     96    102       14.40          0.1815E+06
  16633      1     96    103       23.70          0.1815E+06
  16634      1     96    104       28.60          0.1815E+06
  16635      1     96    105       31.70          0.1815E+06
  16636      1     96    106       32.90          0.1815E+06
  16637      1     96    107       33.00          0.1815E+06
  16638      1     96    108       33.20          0.1815E+06
  16639      1     96    109       34.80          0.1815E+06
  16640      1     96    110       36.30          0.1815E+06
  16641      1     96    111       36.90          0.1815E+06
  16642      1     96    112       37.90          0.1815E+06
  16643      1     96    113       38.40          0.1815E+06
  16644      1     96    114       38.60          0.1815E+06
  16645      1     96    115       38.60          0.1815E+06
  16646      1     96    116       38.60          0.1815E+06
  16647      1     96    117       39.10          0.1815E+06
  16648      1     96    118       40.30          0.1815E+06
  16649      1     96    119       41.20          0.1815E+06
  16650      1     96    120       41.80          0.1815E+06
  16651      1     96    121       42.40          0.1815E+06
  16652      1     96    122       42.80          0.1815E+06
  16653      1     96    123       43.10          0.1815E+06
  16654      1     96    124       43.70          0.1815E+06
  16655      1     96    125       44.90          0.1815E+06
  16656      1     96    126       47.60          0.1815E+06
  16657      1     96    127       50.70          0.1815E+06
  16658      1     96    128       54.30          0.1815E+06
  16659      1     96    129       58.60          0.1815E+06
  16660      1     96    130       63.20          0.1815E+06
  16661      1     96    131       68.60          0.1815E+06
  16662      1     96    132       73.40          0.1815E+06
  16663      1     96    133       77.20          0.1815E+06
  16664      1     96    134       80.20          0.1815E+06
  16665      1     96    135       82.40          0.1815E+06
  16666      1     96    136       84.10          0.1815E+06
  16667      1     96    137       84.20          0.1815E+06
  16668      1     96    138       83.90          0.1815E+06
  16669      1     96    139       84.40          0.1815E+06
  16670      1     96    140       83.80          0.1815E+06
  16671      1     96    141       82.20          0.1815E+06
  16672      1     96    142       80.40          0.1815E+06
  16673      1     96    143       77.10          0.1815E+06
  16674      1     96    144       78.70          0.1815E+06
  16675      1     96    145       82.00          0.1815E+06
  16676      1     96    146       82.90          0.1815E+06
  16677      1     96    147       82.30          0.1815E+06
  16678      1     96    148       81.40          0.1815E+06
  16679      1     96    149       79.80          0.1815E+06
  16680      1     96    150       77.80          0.1815E+06
  16681      1     96    151       72.90          0.1815E+06
  16682      1     96    152       68.10          0.1815E+06
  16683      1     96    153       62.60          0.1815E+06
  16684      1     96    154       60.20          0.1815E+06
  16685      1     96    155       53.40          0.1815E+06
  16686      1     96    156       50.60          0.1815E+06
  16687      1     96    157       50.70          0.1815E+06
  16688      1     96    158       50.50          0.1815E+06
  16689      1     96    159       50.20          0.1815E+06
  16690      1     96    160       49.20          0.1815E+06
  16691      1     96    161       48.50          0.1815E+06
  16692      1     96    162       48.10          0.1815E+06
  16693      1     96    163       47.60          0.1815E+06
  16694      1     96    164       46.90          0.1815E+06
  16695      1     96    165       45.10          0.1815E+06
  16696      1     96    166       44.00          0.1815E+06
  16697      1     96    167       43.50          0.1815E+06
  16698      1     96    168       43.00          0.1815E+06
  16699      1     96    169       42.50          0.1815E+06
  16700      1     96    170       42.20          0.1815E+06
  16701      1     96    171       42.00          0.1815E+06
  16702      1     96    172       42.50          0.1815E+06
  16703      1     96    173       44.80          0.1815E+06
  16704      1     96    174       45.40          0.1815E+06
  16705      1     97      1      -9.140          0.1815E+06
  16706      1     97      2      -9.400          0.1815E+06
  16707      1     97      3      -9.400          0.1815E+06
  16708      1     97      4      -9.460          0.1815E+06
  16709      1     97      5      -9.210          0.1815E+06
  16710      1     97      6      -9.290          0.1815E+06
  16711      1     97      7      -9.690          0.1815E+06
  16712      1     97      8      -10.39          0.1815E+06
  16713      1     97      9      -10.39          0.1815E+06
  16714      1     97     10      -10.59          0.1815E+06
  16715      1     97     11      -9.890          0.1815E+06
  16716      1     97     12      -9.690          0.1815E+06
  16717      1     97     13      -10.09          0.1815E+06
  16718      1     97     14      -10.19          0.1815E+06
  16719      1     97     15      -10.19          0.1815E+06
  16720      1     97     16      -9.600          0.1815E+06
  16721      1     97     17      -8.800          0.1815E+06
  16722      1     97     18      -8.500          0.1815E+06
  16723      1     97     19      -7.700          0.1815E+06
  16724      1     97     20      -7.090          0.1815E+06
  16725      1     97     21      -7.090          0.1815E+06
  16726      1     97     22      -6.690          0.1815E+06
  16727      1     97     23      -6.990          0.1815E+06
  16728      1     97     24      -6.140          0.1815E+06
  16729      1     97     25      -5.490          0.1815E+06
  16730      1     97     26      -5.490          0.1815E+06
  16731      1     97     27      -4.790          0.1815E+06
  16732      1     97     28      -4.580          0.1815E+06
  16733      1     97     29      -2.730          0.1815E+06
  16734      1     97     30      -2.280          0.1815E+06
  16735      1     97     31      0.4700          0.1815E+06
  16736      1     97     32      0.4700          0.1815E+06
  16737      1     97     33      0.4700          0.1815E+06
  16738      1     97     34      0.4800          0.1815E+06
  16739      1     97     35      0.4800          0.1815E+06
  16740      1     97     36       1.490          0.1815E+06
  16741      1     97     37       1.990          0.1815E+06
  16742      1     97     38       1.990          0.1815E+06
  16743      1     97     39       2.500          0.1815E+06
  16744      1     97     40       3.500          0.1815E+06
  16745      1     97     41       4.500          0.1815E+06
  16746      1     97     42       7.520          0.1815E+06
  16747      1     97     43       9.550          0.1815E+06
  16748      1     97     44       7.010          0.1815E+06
  16749      1     97     45       7.690          0.1815E+06
  16750      1     97     46       7.460          0.1815E+06
  16751      1     97     47       10.94          0.1815E+06
  16752      1     97     48       8.150          0.1815E+06
  16753      1     97     49       8.480          0.1815E+06
  16754      1     97     50       8.680          0.1815E+06
  16755      1     97     51       8.680          0.1815E+06
  16756      1     97     52       9.840          0.1815E+06
  16757      1     97     53       10.38          0.1815E+06
  16758      1     97     54       9.970          0.1815E+06
  16759      1     97     55       9.470          0.1815E+06
  16760      1     97     56       9.100          0.1815E+06
  16761      1     97     57       9.280          0.1815E+06
  16762      1     97     58       8.510          0.1815E+06
  16763      1     97     59       7.920          0.1815E+06
  16764      1     97     60       8.090          0.1815E+06
  16765      1     97     61       7.630          0.1815E+06
  16766      1     97     62       8.260          0.1815E+06
  16767      1     97     63       10.78          0.1815E+06
  16768      1     97     64       11.10          0.1815E+06
  16769      1     97     65       12.56          0.1815E+06
  16770      1     97     66       12.76          0.1815E+06
  16771      1     97     67       13.56          0.1815E+06
  16772      1     97     68       13.00          0.1815E+06
  16773      1     97     69       12.80          0.1815E+06
  16774      1     97     70       12.80          0.1815E+06
  16775      1     97     71       12.28          0.1815E+06
  16776      1     97     72       11.69          0.1815E+06
  16777      1     97     73       9.670          0.1815E+06
  16778      1     97     74       10.31          0.1815E+06
  16779      1     97     75       12.40          0.1815E+06
  16780      1     97     76       13.77          0.1815E+06
  16781      1     97     77       14.18          0.1815E+06
  16782      1     97     78       14.56          0.1815E+06
  16783      1     97     79       14.97          0.1815E+06
  16784      1     97     80       13.43          0.1815E+06
  16785      1     97     81       14.30          0.1815E+06
  16786      1     97     82       15.72          0.1815E+06
  16787      1     97     83       16.10          0.1815E+06
  16788      1     97     84       21.15          0.1815E+06
  16789      1     97     85       22.80          0.1815E+06
  16790      1     97     86       23.40          0.1815E+06
  16791      1     97     87       22.90          0.1815E+06
  16792      1     97     88       21.40          0.1815E+06
  16793      1     97     89       19.90          0.1815E+06
  16794      1     97     90       20.80          0.1815E+06
  16795      1     97     91       21.70          0.1815E+06
  16796      1     97     92       20.30          0.1815E+06
  16797      1     97     93       18.80          0.1815E+06
  16798      1     97     94       21.20          0.1815E+06
  16799      1     97     95       23.80          0.1815E+06
  16800      1     97     96       25.80          0.1815E+06
  16801      1     97     97       26.70          0.1815E+06
  16802      1     97     98       26.70          0.1815E+06
  16803      1     97     99       26.50          0.1815E+06
  16804      1     97    100       25.20          0.1815E+06
  16805      1     97    101       17.50          0.1815E+06
  16806      1     97    102       15.40          0.1815E+06
  16807      1     97    103       24.80          0.1815E+06
  16808      1     97    104       28.10          0.1815E+06
  16809      1     97    105       30.70          0.1815E+06
  16810      1     97    106       31.90          0.1815E+06
  16811      1     97    107       32.50          0.1815E+06
  16812      1     97    108       32.70          0.1815E+06
  16813      1     97    109       33.90          0.1815E+06
  16814      1     97    110       35.00          0.1815E+06
  16815      1     97    111       35.20          0.1815E+06
  16816      1     97    112       36.40          0.1815E+06
  16817      1     97    113       37.40          0.1815E+06
  16818      1     97    114       37.80          0.1815E+06
  16819      1     97    115       37.40          0.1815E+06
  16820      1     97    116       37.30          0.1815E+06
  16821      1     97    117       38.70          0.1815E+06
  16822      1     97    118       39.80          0.1815E+06
  16823      1     97    119       41.00          0.1815E+06
  16824      1     97    120       41.90          0.1815E+06
  16825      1     97    121       42.40          0.1815E+06
  16826      1     97    122       42.50          0.1815E+06
  16827      1     97    123       42.90          0.1815E+06
  16828      1     97    124       44.00          0.1815E+06
  16829      1     97    125       46.20          0.1815E+06
  16830      1     97    126       49.00          0.1815E+06
  16831      1     97    127       52.30          0.1815E+06
  16832      1     97    128       56.30          0.1815E+06
  16833      1     97    129       60.90          0.1815E+06
  16834      1     97    130       66.30          0.1815E+06
  16835      1     97    131       73.40          0.1815E+06
  16836      1     97    132       77.50          0.1815E+06
  16837      1     97    133       80.50          0.1815E+06
  16838      1     97    134       81.70          0.1815E+06
  16839      1     97    135       82.90          0.1815E+06
  16840      1     97    136       84.50          0.1815E+06
  16841      1     97    137       85.50          0.1815E+06
  16842      1     97    138       85.30          0.1815E+06
  16843      1     97    139       85.80          0.1815E+06
  16844      1     97    140       85.20          0.1815E+06
  16845      1     97    141       84.10          0.1815E+06
  16846      1     97    142       82.50          0.1815E+06
  16847      1     97    143       79.90          0.1815E+06
  16848      1     97    144       80.90          0.1815E+06
  16849      1     97    145       83.60          0.1815E+06
  16850      1     97    146       84.50          0.1815E+06
  16851      1     97    147       84.00          0.1815E+06
  16852      1     97    148       82.90          0.1815E+06
  16853      1     97    149       81.80          0.1815E+06
  16854      1     97    150       80.40          0.1815E+06
  16855      1     97    151       75.70          0.1815E+06
  16856      1     97    152       73.50          0.1815E+06
  16857      1     97    153       70.10          0.1815E+06
  16858      1     97    154       65.60          0.1815E+06
  16859      1     97    155       57.60          0.1815E+06
  16860      1     97    156       54.20          0.1815E+06
  16861      1     97    157       53.90          0.1815E+06
  16862      1     97    158       53.90          0.1815E+06
  16863      1     97    159       53.30          0.1815E+06
  16864      1     97    160       51.80          0.1815E+06
  16865      1     97    161       50.10          0.1815E+06
  16866      1     97    162       48.60          0.1815E+06
  16867      1     97    163       46.80          0.1815E+06
  16868      1     97    164       45.20          0.1815E+06
  16869      1     97    165       44.50          0.1815E+06
  16870      1     97    166       44.30          0.1815E+06
  16871      1     97    167       43.60          0.1815E+06
  16872      1     97    168       43.00          0.1815E+06
  16873      1     97    169       42.30          0.1815E+06
  16874      1     97    170       41.60          0.1815E+06
  16875      1     97    171       41.40          0.1815E+06
  16876      1     97    172       42.00          0.1815E+06
  16877      1     97    173       43.30          0.1815E+06
  16878      1     97    174       44.10          0.1815E+06
  16879      1     98      1      -9.390          0.1815E+06
  16880      1     98      2      -9.590          0.1815E+06
  16881      1     98      3      -9.590          0.1815E+06
  16882      1     98      4      -9.490          0.1815E+06
  16883      1     98      5      -8.490          0.1815E+06
  16884      1     98      6      -9.090          0.1815E+06
  16885      1     98      7      -9.390          0.1815E+06
  16886      1     98      8      -9.540          0.1815E+06
  16887      1     98      9      -9.540          0.1815E+06
  16888      1     98     10      -10.21          0.1815E+06
  16889      1     98     11      -10.49          0.1815E+06
  16890      1     98     12      -10.33          0.1815E+06
  16891      1     98     13      -10.09          0.1815E+06
  16892      1     98     14      -10.19          0.1815E+06
  16893      1     98     15      -10.19          0.1815E+06
  16894      1     98     16      -9.600          0.1815E+06
  16895      1     98     17      -8.800          0.1815E+06
  16896      1     98     18      -8.980          0.1815E+06
  16897      1     98     19      -8.580          0.1815E+06
  16898      1     98     20      -8.400          0.1815E+06
  16899      1     98     21      -8.400          0.1815E+06
  16900      1     98     22      -7.800          0.1815E+06
  16901      1     98     23      -7.430          0.1815E+06
  16902      1     98     24      -6.490          0.1815E+06
  16903      1     98     25      -5.590          0.1815E+06
  16904      1     98     26      -5.590          0.1815E+06
  16905      1     98     27      -4.890          0.1815E+06
  16906      1     98     28      -4.720          0.1815E+06
  16907      1     98     29      -3.390          0.1815E+06
  16908      1     98     30      -1.890          0.1815E+06
  16909      1     98     31     -0.7100          0.1815E+06
  16910      1     98     32     -0.7100          0.1815E+06
  16911      1     98     33     -0.7100          0.1815E+06
  16912      1     98     34     -0.2000          0.1815E+06
  16913      1     98     35      0.4800          0.1815E+06
  16914      1     98     36      0.4800          0.1815E+06
  16915      1     98     37       2.490          0.1815E+06
  16916      1     98     38       2.490          0.1815E+06
  16917      1     98     39       2.500          0.1815E+06
  16918      1     98     40       3.500          0.1815E+06
  16919      1     98     41       4.500          0.1815E+06
  16920      1     98     42       6.520          0.1815E+06
  16921      1     98     43       6.050          0.1815E+06
  16922      1     98     44       11.61          0.1815E+06
  16923      1     98     45       8.750          0.1815E+06
  16924      1     98     46       9.420          0.1815E+06
  16925      1     98     47       7.820          0.1815E+06
  16926      1     98     48       7.860          0.1815E+06
  16927      1     98     49       9.000          0.1815E+06
  16928      1     98     50       9.750          0.1815E+06
  16929      1     98     51       9.460          0.1815E+06
  16930      1     98     52       9.280          0.1815E+06
  16931      1     98     53       9.070          0.1815E+06
  16932      1     98     54       9.270          0.1815E+06
  16933      1     98     55       9.310          0.1815E+06
  16934      1     98     56       8.630          0.1815E+06
  16935      1     98     57       8.820          0.1815E+06
  16936      1     98     58       9.760          0.1815E+06
  16937      1     98     59       8.430          0.1815E+06
  16938      1     98     60       10.11          0.1815E+06
  16939      1     98     61       7.860          0.1815E+06
  16940      1     98     62       7.440          0.1815E+06
  16941      1     98     63       8.930          0.1815E+06
  16942      1     98     64       11.32          0.1815E+06
  16943      1     98     65       12.53          0.1815E+06
  16944      1     98     66       13.07          0.1815E+06
  16945      1     98     67       13.05          0.1815E+06
  16946      1     98     68       12.52          0.1815E+06
  16947      1     98     69       12.28          0.1815E+06
  16948      1     98     70       12.06          0.1815E+06
  16949      1     98     71       12.05          0.1815E+06
  16950      1     98     72       11.21          0.1815E+06
  16951      1     98     73       9.130          0.1815E+06
  16952      1     98     74       10.43          0.1815E+06
  16953      1     98     75       12.46          0.1815E+06
  16954      1     98     76       12.97          0.1815E+06
  16955      1     98     77       13.52          0.1815E+06
  16956      1     98     78       13.80          0.1815E+06
  16957      1     98     79       13.57          0.1815E+06
  16958      1     98     80       14.47          0.1815E+06
  16959      1     98     81       14.27          0.1815E+06
  16960      1     98     82       14.78          0.1815E+06
  16961      1     98     83       15.46          0.1815E+06
  16962      1     98     84       19.90          0.1815E+06
  16963      1     98     85       21.30          0.1815E+06
  16964      1     98     86       22.30          0.1815E+06
  16965      1     98     87       22.00          0.1815E+06
  16966      1     98     88       20.00          0.1815E+06
  16967      1     98     89       18.60          0.1815E+06
  16968      1     98     90       18.40          0.1815E+06
  16969      1     98     91       17.60          0.1815E+06
  16970      1     98     92       16.00          0.1815E+06
  16971      1     98     93       16.30          0.1815E+06
  16972      1     98     94       17.90          0.1815E+06
  16973      1     98     95       19.30          0.1815E+06
  16974      1     98     96       20.90          0.1815E+06
  16975      1     98     97       21.90          0.1815E+06
  16976      1     98     98       22.40          0.1815E+06
  16977      1     98     99       22.10          0.1815E+06
  16978      1     98    100       19.00          0.1815E+06
  16979      1     98    101       14.20          0.1815E+06
  16980      1     98    102       12.50          0.1815E+06
  16981      1     98    103       16.40          0.1815E+06
  16982      1     98    104       20.00          0.1815E+06
  16983      1     98    105       21.90          0.1815E+06
  16984      1     98    106       25.60          0.1815E+06
  16985      1     98    107       26.40          0.1815E+06
  16986      1     98    108       29.70          0.1815E+06
  16987      1     98    109       31.70          0.1815E+06
  16988      1     98    110       32.80          0.1815E+06
  16989      1     98    111       32.60          0.1815E+06
  16990      1     98    112       34.60          0.1815E+06
  16991      1     98    113       36.00          0.1815E+06
  16992      1     98    114       36.40          0.1815E+06
  16993      1     98    115       35.50          0.1815E+06
  16994      1     98    116       36.70          0.1815E+06
  16995      1     98    117       38.40          0.1815E+06
  16996      1     98    118       39.50          0.1815E+06
  16997      1     98    119       40.60          0.1815E+06
  16998      1     98    120       40.90          0.1815E+06
  16999      1     98    121       41.70          0.1815E+06
  17000      1     98    122       41.80          0.1815E+06
  17001      1     98    123       42.50          0.1815E+06
  17002      1     98    124       44.30          0.1815E+06
  17003      1     98    125       47.00          0.1815E+06
  17004      1     98    126       49.70          0.1815E+06
  17005      1     98    127       52.90          0.1815E+06
  17006      1     98    128       56.90          0.1815E+06
  17007      1     98    129       61.50          0.1815E+06
  17008      1     98    130       67.10          0.1815E+06
  17009      1     98    131       73.50          0.1815E+06
  17010      1     98    132       77.80          0.1815E+06
  17011      1     98    133       79.70          0.1815E+06
  17012      1     98    134       80.80          0.1815E+06
  17013      1     98    135       81.50          0.1815E+06
  17014      1     98    136       82.60          0.1815E+06
  17015      1     98    137       84.30          0.1815E+06
  17016      1     98    138       85.40          0.1815E+06
  17017      1     98    139       86.00          0.1815E+06
  17018      1     98    140       85.90          0.1815E+06
  17019      1     98    141       85.60          0.1815E+06
  17020      1     98    142       83.90          0.1815E+06
  17021      1     98    143       81.80          0.1815E+06
  17022      1     98    144       82.70          0.1815E+06
  17023      1     98    145       85.20          0.1815E+06
  17024      1     98    146       86.00          0.1815E+06
  17025      1     98    147       85.50          0.1815E+06
  17026      1     98    148       84.30          0.1815E+06
  17027      1     98    149       83.30          0.1815E+06
  17028      1     98    150       81.30          0.1815E+06
  17029      1     98    151       79.60          0.1815E+06
  17030      1     98    152       77.60          0.1815E+06
  17031      1     98    153       74.20          0.1815E+06
  17032      1     98    154       67.10          0.1815E+06
  17033      1     98    155       67.70          0.1815E+06
  17034      1     98    156       65.20          0.1815E+06
  17035      1     98    157       59.00          0.1815E+06
  17036      1     98    158       57.50          0.1815E+06
  17037      1     98    159       56.30          0.1815E+06
  17038      1     98    160       54.70          0.1815E+06
  17039      1     98    161       52.20          0.1815E+06
  17040      1     98    162       49.70          0.1815E+06
  17041      1     98    163       46.80          0.1815E+06
  17042      1     98    164       44.50          0.1815E+06
  17043      1     98    165       45.00          0.1815E+06
  17044      1     98    166       45.50          0.1815E+06
  17045      1     98    167       46.10          0.1815E+06
  17046      1     98    168       45.10          0.1815E+06
  17047      1     98    169       42.70          0.1815E+06
  17048      1     98    170       41.20          0.1815E+06
  17049      1     98    171       40.80          0.1815E+06
  17050      1     98    172       41.60          0.1815E+06
  17051      1     98    173       42.40          0.1815E+06
  17052      1     98    174       42.40          0.1815E+06
  17053      1     99      1      -10.79          0.1815E+06
  17054      1     99      2      -10.39          0.1815E+06
  17055      1     99      3      -10.39          0.1815E+06
  17056      1     99      4      -9.720          0.1815E+06
  17057      1     99      5      -9.450          0.1815E+06
  17058      1     99      6      -9.880          0.1815E+06
  17059      1     99      7      -10.49          0.1815E+06
  17060      1     99      8      -9.540          0.1815E+06
  17061      1     99      9      -9.540          0.1815E+06
  17062      1     99     10      -10.21          0.1815E+06
  17063      1     99     11      -10.49          0.1815E+06
  17064      1     99     12      -10.33          0.1815E+06
  17065      1     99     13      -10.46          0.1815E+06
  17066      1     99     14      -10.41          0.1815E+06
  17067      1     99     15      -10.41          0.1815E+06
  17068      1     99     16      -10.21          0.1815E+06
  17069      1     99     17      -9.830          0.1815E+06
  17070      1     99     18      -9.510          0.1815E+06
  17071      1     99     19      -8.910          0.1815E+06
  17072      1     99     20      -8.560          0.1815E+06
  17073      1     99     21      -8.560          0.1815E+06
  17074      1     99     22      -8.120          0.1815E+06
  17075      1     99     23      -7.190          0.1815E+06
  17076      1     99     24      -6.710          0.1815E+06
  17077      1     99     25      -6.090          0.1815E+06
  17078      1     99     26      -6.090          0.1815E+06
  17079      1     99     27      -5.660          0.1815E+06
  17080      1     99     28      -5.070          0.1815E+06
  17081      1     99     29      -4.080          0.1815E+06
  17082      1     99     30      -2.960          0.1815E+06
  17083      1     99     31      -2.280          0.1815E+06
  17084      1     99     32      -2.280          0.1815E+06
  17085      1     99     33      -2.490          0.1815E+06
  17086      1     99     34     -0.2000          0.1815E+06
  17087      1     99     35      0.4800          0.1815E+06
  17088      1     99     36      0.4800          0.1815E+06
  17089      1     99     37       1.490          0.1815E+06
  17090      1     99     38       1.490          0.1815E+06
  17091      1     99     39       1.500          0.1815E+06
  17092      1     99     40       2.500          0.1815E+06
  17093      1     99     41       3.500          0.1815E+06
  17094      1     99     42       5.510          0.1815E+06
  17095      1     99     43       6.530          0.1815E+06
  17096      1     99     44       6.530          0.1815E+06
  17097      1     99     45       10.10          0.1815E+06
  17098      1     99     46       8.390          0.1815E+06
  17099      1     99     47       8.280          0.1815E+06
  17100      1     99     48       10.89          0.1815E+06
  17101      1     99     49       9.650          0.1815E+06
  17102      1     99     50       9.100          0.1815E+06
  17103      1     99     51       9.220          0.1815E+06
  17104      1     99     52       9.060          0.1815E+06
  17105      1     99     53       9.230          0.1815E+06
  17106      1     99     54       10.35          0.1815E+06
  17107      1     99     55       9.510          0.1815E+06
  17108      1     99     56       9.780          0.1815E+06
  17109      1     99     57       9.280          0.1815E+06
  17110      1     99     58       9.020          0.1815E+06
  17111      1     99     59       9.570          0.1815E+06
  17112      1     99     60       8.400          0.1815E+06
  17113      1     99     61       8.470          0.1815E+06
  17114      1     99     62       7.880          0.1815E+06
  17115      1     99     63       7.820          0.1815E+06
  17116      1     99     64       9.460          0.1815E+06
  17117      1     99     65       11.35          0.1815E+06
  17118      1     99     66       12.22          0.1815E+06
  17119      1     99     67       11.92          0.1815E+06
  17120      1     99     68       12.18          0.1815E+06
  17121      1     99     69       12.05          0.1815E+06
  17122      1     99     70       11.94          0.1815E+06
  17123      1     99     71       11.30          0.1815E+06
  17124      1     99     72       9.210          0.1815E+06
  17125      1     99     73       9.000          0.1815E+06
  17126      1     99     74       10.69          0.1815E+06
  17127      1     99     75       11.88          0.1815E+06
  17128      1     99     76       12.47          0.1815E+06
  17129      1     99     77       12.98          0.1815E+06
  17130      1     99     78       13.10          0.1815E+06
  17131      1     99     79       13.42          0.1815E+06
  17132      1     99     80       13.59          0.1815E+06
  17133      1     99     81       13.02          0.1815E+06
  17134      1     99     82       14.09          0.1815E+06
  17135      1     99     83       15.49          0.1815E+06
  17136      1     99     84       18.10          0.1815E+06
  17137      1     99     85       19.80          0.1815E+06
  17138      1     99     86       21.30          0.1815E+06
  17139      1     99     87       21.10          0.1815E+06
  17140      1     99     88       20.00          0.1815E+06
  17141      1     99     89       18.50          0.1815E+06
  17142      1     99     90       17.50          0.1815E+06
  17143      1     99     91       15.30          0.1815E+06
  17144      1     99     92       13.60          0.1815E+06
  17145      1     99     93       14.20          0.1815E+06
  17146      1     99     94       15.10          0.1815E+06
  17147      1     99     95       16.10          0.1815E+06
  17148      1     99     96       16.70          0.1815E+06
  17149      1     99     97       17.30          0.1815E+06
  17150      1     99     98       17.60          0.1815E+06
  17151      1     99     99       17.00          0.1815E+06
  17152      1     99    100       14.80          0.1815E+06
  17153      1     99    101       10.90          0.1815E+06
  17154      1     99    102       12.10          0.1815E+06
  17155      1     99    103       13.60          0.1815E+06
  17156      1     99    104       16.40          0.1815E+06
  17157      1     99    105       16.90          0.1815E+06
  17158      1     99    106       14.80          0.1815E+06
  17159      1     99    107       14.50          0.1815E+06
  17160      1     99    108       19.50          0.1815E+06
  17161      1     99    109       23.10          0.1815E+06
  17162      1     99    110       25.50          0.1815E+06
  17163      1     99    111       32.10          0.1815E+06
  17164      1     99    112       33.80          0.1815E+06
  17165      1     99    113       34.60          0.1815E+06
  17166      1     99    114       34.60          0.1815E+06
  17167      1     99    115       34.50          0.1815E+06
  17168      1     99    116       36.20          0.1815E+06
  17169      1     99    117       37.20          0.1815E+06
  17170      1     99    118       38.40          0.1815E+06
  17171      1     99    119       39.20          0.1815E+06
  17172      1     99    120       39.10          0.1815E+06
  17173      1     99    121       39.30          0.1815E+06
  17174      1     99    122       40.30          0.1815E+06
  17175      1     99    123       40.90          0.1815E+06
  17176      1     99    124       43.70          0.1815E+06
  17177      1     99    125       47.20          0.1815E+06
  17178      1     99    126       49.50          0.1815E+06
  17179      1     99    127       53.00          0.1815E+06
  17180      1     99    128       57.80          0.1815E+06
  17181      1     99    129       62.60          0.1815E+06
  17182      1     99    130       67.50          0.1815E+06
  17183      1     99    131       72.30          0.1815E+06
  17184      1     99    132       75.50          0.1815E+06
  17185      1     99    133       77.20          0.1815E+06
  17186      1     99    134       77.20          0.1815E+06
  17187      1     99    135       78.20          0.1815E+06
  17188      1     99    136       79.70          0.1815E+06
  17189      1     99    137       81.80          0.1815E+06
  17190      1     99    138       83.50          0.1815E+06
  17191      1     99    139       85.20          0.1815E+06
  17192      1     99    140       85.80          0.1815E+06
  17193      1     99    141       85.50          0.1815E+06
  17194      1     99    142       84.50          0.1815E+06
  17195      1     99    143       83.40          0.1815E+06
  17196      1     99    144       83.80          0.1815E+06
  17197      1     99    145       85.70          0.1815E+06
  17198      1     99    146       86.60          0.1815E+06
  17199      1     99    147       86.30          0.1815E+06
  17200      1     99    148       85.60          0.1815E+06
  17201      1     99    149       84.50          0.1815E+06
  17202      1     99    150       83.00          0.1815E+06
  17203      1     99    151       82.00          0.1815E+06
  17204      1     99    152       80.30          0.1815E+06
  17205      1     99    153       77.50          0.1815E+06
  17206      1     99    154       73.00          0.1815E+06
  17207      1     99    155       75.70          0.1815E+06
  17208      1     99    156       74.90          0.1815E+06
  17209      1     99    157       70.60          0.1815E+06
  17210      1     99    158       65.40          0.1815E+06
  17211      1     99    159       61.30          0.1815E+06
  17212      1     99    160       60.40          0.1815E+06
  17213      1     99    161       55.60          0.1815E+06
  17214      1     99    162       52.40          0.1815E+06
  17215      1     99    163       49.00          0.1815E+06
  17216      1     99    164       46.50          0.1815E+06
  17217      1     99    165       45.90          0.1815E+06
  17218      1     99    166       46.70          0.1815E+06
  17219      1     99    167       46.20          0.1815E+06
  17220      1     99    168       44.20          0.1815E+06
  17221      1     99    169       42.40          0.1815E+06
  17222      1     99    170       40.80          0.1815E+06
  17223      1     99    171       39.80          0.1815E+06
  17224      1     99    172       40.70          0.1815E+06
  17225      1     99    173       41.30          0.1815E+06
  17226      1     99    174       40.80          0.1815E+06
  17227      1    100      1      -10.79          0.1815E+06
  17228      1    100      2      -10.39          0.1815E+06
  17229      1    100      3      -10.39          0.1815E+06
  17230      1    100      4      -9.720          0.1815E+06
  17231      1    100      5      -9.450          0.1815E+06
  17232      1    100      6      -9.880          0.1815E+06
  17233      1    100      7      -10.49          0.1815E+06
  17234      1    100      8      -9.540          0.1815E+06
  17235      1    100      9      -9.540          0.1815E+06
  17236      1    100     10      -10.21          0.1815E+06
  17237      1    100     11      -10.49          0.1815E+06
  17238      1    100     12      -10.33          0.1815E+06
  17239      1    100     13      -10.46          0.1815E+06
  17240      1    100     14      -10.41          0.1815E+06
  17241      1    100     15      -10.41          0.1815E+06
  17242      1    100     16      -10.21          0.1815E+06
  17243      1    100     17      -9.830          0.1815E+06
  17244      1    100     18      -9.510          0.1815E+06
  17245      1    100     19      -8.910          0.1815E+06
  17246      1    100     20      -8.560          0.1815E+06
  17247      1    100     21      -8.560          0.1815E+06
  17248      1    100     22      -8.120          0.1815E+06
  17249      1    100     23      -7.190          0.1815E+06
  17250      1    100     24      -6.710          0.1815E+06
  17251      1    100     25      -6.090          0.1815E+06
  17252      1    100     26      -6.090          0.1815E+06
  17253      1    100     27      -5.660          0.1815E+06
  17254      1    100     28      -5.070          0.1815E+06
  17255      1    100     29      -4.080          0.1815E+06
  17256      1    100     30      -2.960          0.1815E+06
  17257      1    100     31      -2.280          0.1815E+06
  17258      1    100     32      -2.280          0.1815E+06
  17259      1    100     33      -2.490          0.1815E+06
  17260      1    100     34     -0.2000          0.1815E+06
  17261      1    100     35      0.4800          0.1815E+06
  17262      1    100     36      0.4800          0.1815E+06
  17263      1    100     37       1.490          0.1815E+06
  17264      1    100     38       1.490          0.1815E+06
  17265      1    100     39       1.500          0.1815E+06
  17266      1    100     40       2.500          0.1815E+06
  17267      1    100     41       3.500          0.1815E+06
  17268      1    100     42       5.510          0.1815E+06
  17269      1    100     43       6.530          0.1815E+06
  17270      1    100     44       6.530          0.1815E+06
  17271      1    100     45       12.73          0.1815E+06
  17272      1    100     46       7.630          0.1815E+06
  17273      1    100     47       8.310          0.1815E+06
  17274      1    100     48       9.270          0.1815E+06
  17275      1    100     49       8.690          0.1815E+06
  17276      1    100     50       9.310          0.1815E+06
  17277      1    100     51       8.810          0.1815E+06
  17278      1    100     52       9.100          0.1815E+06
  17279      1    100     53       9.220          0.1815E+06
  17280      1    100     54       9.320          0.1815E+06
  17281      1    100     55       9.360          0.1815E+06
  17282      1    100     56       9.420          0.1815E+06
  17283      1    100     57       9.820          0.1815E+06
  17284      1    100     58       9.170          0.1815E+06
  17285      1    100     59       9.900          0.1815E+06
  17286      1    100     60       8.640          0.1815E+06
  17287      1    100     61       8.680          0.1815E+06
  17288      1    100     62       8.770          0.1815E+06
  17289      1    100     63       8.360          0.1815E+06
  17290      1    100     64       7.090          0.1815E+06
  17291      1    100     65       8.310          0.1815E+06
  17292      1    100     66       10.76          0.1815E+06
  17293      1    100     67       10.97          0.1815E+06
  17294      1    100     68       11.18          0.1815E+06
  17295      1    100     69       11.56          0.1815E+06
  17296      1    100     70       11.65          0.1815E+06
  17297      1    100     71       10.26          0.1815E+06
  17298      1    100     72       8.420          0.1815E+06
  17299      1    100     73       8.810          0.1815E+06
  17300      1    100     74       11.48          0.1815E+06
  17301      1    100     75       12.01          0.1815E+06
  17302      1    100     76       12.34          0.1815E+06
  17303      1    100     77       12.77          0.1815E+06
  17304      1    100     78       11.93          0.1815E+06
  17305      1    100     79       13.18          0.1815E+06
  17306      1    100     80       13.23          0.1815E+06
  17307      1    100     81       11.52          0.1815E+06
  17308      1    100     82       13.18          0.1815E+06
  17309      1    100     83       16.07          0.1815E+06
  17310      1    100     84       16.60          0.1815E+06
  17311      1    100     85       17.70          0.1815E+06
  17312      1    100     86       19.60          0.1815E+06
  17313      1    100     87       19.90          0.1815E+06
  17314      1    100     88       19.20          0.1815E+06
  17315      1    100     89       17.80          0.1815E+06
  17316      1    100     90       16.40          0.1815E+06
  17317      1    100     91       14.50          0.1815E+06
  17318      1    100     92       12.80          0.1815E+06
  17319      1    100     93       12.40          0.1815E+06
  17320      1    100     94       12.40          0.1815E+06
  17321      1    100     95       12.09          0.1815E+06
  17322      1    100     96       12.39          0.1815E+06
  17323      1    100     97       12.29          0.1815E+06
  17324      1    100     98       12.28          0.1815E+06
  17325      1    100     99       11.32          0.1815E+06
  17326      1    100    100       9.170          0.1815E+06
  17327      1    100    101       10.50          0.1815E+06
  17328      1    100    102       15.50          0.1815E+06
  17329      1    100    103       22.20          0.1815E+06
  17330      1    100    104       25.20          0.1815E+06
  17331      1    100    105       25.40          0.1815E+06
  17332      1    100    106       24.20          0.1815E+06
  17333      1    100    107       27.60          0.1815E+06
  17334      1    100    108       23.90          0.1815E+06
  17335      1    100    109       21.10          0.1815E+06
  17336      1    100    110       18.70          0.1815E+06
  17337      1    100    111       25.90          0.1815E+06
  17338      1    100    112       31.60          0.1815E+06
  17339      1    100    113       32.80          0.1815E+06
  17340      1    100    114       32.40          0.1815E+06
  17341      1    100    115       33.10          0.1815E+06
  17342      1    100    116       35.10          0.1815E+06
  17343      1    100    117       35.60          0.1815E+06
  17344      1    100    118       36.40          0.1815E+06
  17345      1    100    119       37.30          0.1815E+06
  17346      1    100    120       37.30          0.1815E+06
  17347      1    100    121       37.60          0.1815E+06
  17348      1    100    122       37.80          0.1815E+06
  17349      1    100    123       38.70          0.1815E+06
  17350      1    100    124       42.40          0.1815E+06
  17351      1    100    125       45.90          0.1815E+06
  17352      1    100    126       49.20          0.1815E+06
  17353      1    100    127       52.80          0.1815E+06
  17354      1    100    128       57.40          0.1815E+06
  17355      1    100    129       63.20          0.1815E+06
  17356      1    100    130       67.60          0.1815E+06
  17357      1    100    131       70.80          0.1815E+06
  17358      1    100    132       72.10          0.1815E+06
  17359      1    100    133       73.50          0.1815E+06
  17360      1    100    134       73.20          0.1815E+06
  17361      1    100    135       74.70          0.1815E+06
  17362      1    100    136       76.10          0.1815E+06
  17363      1    100    137       78.70          0.1815E+06
  17364      1    100    138       80.70          0.1815E+06
  17365      1    100    139       83.10          0.1815E+06
  17366      1    100    140       84.30          0.1815E+06
  17367      1    100    141       85.00          0.1815E+06
  17368      1    100    142       84.60          0.1815E+06
  17369      1    100    143       84.20          0.1815E+06
  17370      1    100    144       84.70          0.1815E+06
  17371      1    100    145       85.70          0.1815E+06
  17372      1    100    146       85.80          0.1815E+06
  17373      1    100    147       85.80          0.1815E+06
  17374      1    100    148       85.70          0.1815E+06
  17375      1    100    149       85.30          0.1815E+06
  17376      1    100    150       84.50          0.1815E+06
  17377      1    100    151       83.40          0.1815E+06
  17378      1    100    152       82.50          0.1815E+06
  17379      1    100    153       80.50          0.1815E+06
  17380      1    100    154       78.80          0.1815E+06
  17381      1    100    155       80.70          0.1815E+06
  17382      1    100    156       81.00          0.1815E+06
  17383      1    100    157       79.70          0.1815E+06
  17384      1    100    158       77.20          0.1815E+06
  17385      1    100    159       72.10          0.1815E+06
  17386      1    100    160       67.80          0.1815E+06
  17387      1    100    161       62.70          0.1815E+06
  17388      1    100    162       56.70          0.1815E+06
  17389      1    100    163       52.70          0.1815E+06
  17390      1    100    164       49.30          0.1815E+06
  17391      1    100    165       46.80          0.1815E+06
  17392      1    100    166       46.10          0.1815E+06
  17393      1    100    167       44.80          0.1815E+06
  17394      1    100    168       42.80          0.1815E+06
  17395      1    100    169       41.20          0.1815E+06
  17396      1    100    170       40.00          0.1815E+06
  17397      1    100    171       39.70          0.1815E+06
  17398      1    100    172       39.10          0.1815E+06
  17399      1    100    173       38.40          0.1815E+06
  17400      1    100    174       41.20          0.1815E+06
  17401      1    101      1      -11.02          0.1815E+06
  17402      1    101      2      -9.890          0.1815E+06
  17403      1    101      3      -9.890          0.1815E+06
  17404      1    101      4      -9.500          0.1815E+06
  17405      1    101      5      -9.450          0.1815E+06
  17406      1    101      6      -9.880          0.1815E+06
  17407      1    101      7      -10.10          0.1815E+06
  17408      1    101      8      -9.100          0.1815E+06
  17409      1    101      9      -9.100          0.1815E+06
  17410      1    101     10      -10.20          0.1815E+06
  17411      1    101     11      -11.10          0.1815E+06
  17412      1    101     12      -11.00          0.1815E+06
  17413      1    101     13      -11.00          0.1815E+06
  17414      1    101     14      -10.80          0.1815E+06
  17415      1    101     15      -10.80          0.1815E+06
  17416      1    101     16      -10.96          0.1815E+06
  17417      1    101     17      -10.16          0.1815E+06
  17418      1    101     18      -10.11          0.1815E+06
  17419      1    101     19      -9.610          0.1815E+06
  17420      1    101     20      -8.610          0.1815E+06
  17421      1    101     21      -8.610          0.1815E+06
  17422      1    101     22      -8.210          0.1815E+06
  17423      1    101     23      -6.800          0.1815E+06
  17424      1    101     24      -6.900          0.1815E+06
  17425      1    101     25      -6.500          0.1815E+06
  17426      1    101     26      -6.500          0.1815E+06
  17427      1    101     27      -6.300          0.1815E+06
  17428      1    101     28      -5.550          0.1815E+06
  17429      1    101     29      -4.080          0.1815E+06
  17430      1    101     30      -2.960          0.1815E+06
  17431      1    101     31      -2.280          0.1815E+06
  17432      1    101     32      -2.280          0.1815E+06
  17433      1    101     33      -2.490          0.1815E+06
  17434      1    101     34      -1.590          0.1815E+06
  17435      1    101     35     -0.7200          0.1815E+06
  17436      1    101     36     -0.1800          0.1815E+06
  17437      1    101     37      0.4900          0.1815E+06
  17438      1    101     38      0.4900          0.1815E+06
  17439      1    101     39      0.5000          0.1815E+06
  17440      1    101     40       1.500          0.1815E+06
  17441      1    101     41       2.500          0.1815E+06
  17442      1    101     42       3.520          0.1815E+06
  17443      1    101     43       4.520          0.1815E+06
  17444      1    101     44       4.520          0.1815E+06
  17445      1    101     45       6.520          0.1815E+06
  17446      1    101     46       10.64          0.1815E+06
  17447      1    101     47       10.21          0.1815E+06
  17448      1    101     48       7.980          0.1815E+06
  17449      1    101     49       9.060          0.1815E+06
  17450      1    101     50       8.610          0.1815E+06
  17451      1    101     51       8.720          0.1815E+06
  17452      1    101     52       8.820          0.1815E+06
  17453      1    101     53       9.030          0.1815E+06
  17454      1    101     54       8.810          0.1815E+06
  17455      1    101     55       9.130          0.1815E+06
  17456      1    101     56       9.570          0.1815E+06
  17457      1    101     57       10.25          0.1815E+06
  17458      1    101     58       9.350          0.1815E+06
  17459      1    101     59       9.310          0.1815E+06
  17460      1    101     60       9.020          0.1815E+06
  17461      1    101     61       7.920          0.1815E+06
  17462      1    101     62       9.280          0.1815E+06
  17463      1    101     63       8.270          0.1815E+06
  17464      1    101     64       7.510          0.1815E+06
  17465      1    101     65       7.150          0.1815E+06
  17466      1    101     66       8.030          0.1815E+06
  17467      1    101     67       10.89          0.1815E+06
  17468      1    101     68       11.55          0.1815E+06
  17469      1    101     69       11.23          0.1815E+06
  17470      1    101     70       9.560          0.1815E+06
  17471      1    101     71       7.760          0.1815E+06
  17472      1    101     72       10.32          0.1815E+06
  17473      1    101     73       11.82          0.1815E+06
  17474      1    101     74       11.07          0.1815E+06
  17475      1    101     75       12.60          0.1815E+06
  17476      1    101     76       12.52          0.1815E+06
  17477      1    101     77       12.85          0.1815E+06
  17478      1    101     78       12.60          0.1815E+06
  17479      1    101     79       12.72          0.1815E+06
  17480      1    101     80       12.80          0.1815E+06
  17481      1    101     81       11.51          0.1815E+06
  17482      1    101     82       12.04          0.1815E+06
  17483      1    101     83       14.70          0.1815E+06
  17484      1    101     84       14.90          0.1815E+06
  17485      1    101     85       16.00          0.1815E+06
  17486      1    101     86       18.00          0.1815E+06
  17487      1    101     87       18.70          0.1815E+06
  17488      1    101     88       18.00          0.1815E+06
  17489      1    101     89       16.40          0.1815E+06
  17490      1    101     90       15.00          0.1815E+06
  17491      1    101     91       13.50          0.1815E+06
  17492      1    101     92       11.80          0.1815E+06
  17493      1    101     93       9.670          0.1815E+06
  17494      1    101     94       9.000          0.1815E+06
  17495      1    101     95       8.820          0.1815E+06
  17496      1    101     96       7.940          0.1815E+06
  17497      1    101     97       8.600          0.1815E+06
  17498      1    101     98       9.520          0.1815E+06
  17499      1    101     99       9.030          0.1815E+06
  17500      1    101    100       9.080          0.1815E+06
  17501      1    101    101       14.70          0.1815E+06
  17502      1    101    102       18.90          0.1815E+06
  17503      1    101    103       24.80          0.1815E+06
  17504      1    101    104       28.00          0.1815E+06
  17505      1    101    105       28.50          0.1815E+06
  17506      1    101    106       28.50          0.1815E+06
  17507      1    101    107       29.70          0.1815E+06
  17508      1    101    108       30.90          0.1815E+06
  17509      1    101    109       30.90          0.1815E+06
  17510      1    101    110       26.30          0.1815E+06
  17511      1    101    111       19.30          0.1815E+06
  17512      1    101    112       25.70          0.1815E+06
  17513      1    101    113       29.60          0.1815E+06
  17514      1    101    114       28.80          0.1815E+06
  17515      1    101    115       31.20          0.1815E+06
  17516      1    101    116       32.60          0.1815E+06
  17517      1    101    117       33.00          0.1815E+06
  17518      1    101    118       33.80          0.1815E+06
  17519      1    101    119       34.00          0.1815E+06
  17520      1    101    120       33.60          0.1815E+06
  17521      1    101    121       35.20          0.1815E+06
  17522      1    101    122       35.60          0.1815E+06
  17523      1    101    123       36.60          0.1815E+06
  17524      1    101    124       40.10          0.1815E+06
  17525      1    101    125       42.70          0.1815E+06
  17526      1    101    126       46.60          0.1815E+06
  17527      1    101    127       50.20          0.1815E+06
  17528      1    101    128       55.20          0.1815E+06
  17529      1    101    129       61.30          0.1815E+06
  17530      1    101    130       64.50          0.1815E+06
  17531      1    101    131       65.90          0.1815E+06
  17532      1    101    132       67.80          0.1815E+06
  17533      1    101    133       68.00          0.1815E+06
  17534      1    101    134       67.90          0.1815E+06
  17535      1    101    135       69.80          0.1815E+06
  17536      1    101    136       71.90          0.1815E+06
  17537      1    101    137       74.90          0.1815E+06
  17538      1    101    138       77.20          0.1815E+06
  17539      1    101    139       80.40          0.1815E+06
  17540      1    101    140       81.90          0.1815E+06
  17541      1    101    141       83.20          0.1815E+06
  17542      1    101    142       84.20          0.1815E+06
  17543      1    101    143       84.60          0.1815E+06
  17544      1    101    144       85.20          0.1815E+06
  17545      1    101    145       85.30          0.1815E+06
  17546      1    101    146       84.70          0.1815E+06
  17547      1    101    147       84.80          0.1815E+06
  17548      1    101    148       84.90          0.1815E+06
  17549      1    101    149       85.00          0.1815E+06
  17550      1    101    150       84.40          0.1815E+06
  17551      1    101    151       83.90          0.1815E+06
  17552      1    101    152       83.70          0.1815E+06
  17553      1    101    153       83.30          0.1815E+06
  17554      1    101    154       82.50          0.1815E+06
  17555      1    101    155       82.70          0.1815E+06
  17556      1    101    156       82.50          0.1815E+06
  17557      1    101    157       80.60          0.1815E+06
  17558      1    101    158       80.30          0.1815E+06
  17559      1    101    159       78.70          0.1815E+06
  17560      1    101    160       73.30          0.1815E+06
  17561      1    101    161       67.40          0.1815E+06
  17562      1    101    162       59.60          0.1815E+06
  17563      1    101    163       54.80          0.1815E+06
  17564      1    101    164       50.20          0.1815E+06
  17565      1    101    165       47.10          0.1815E+06
  17566      1    101    166       44.70          0.1815E+06
  17567      1    101    167       43.00          0.1815E+06
  17568      1    101    168       41.10          0.1815E+06
  17569      1    101    169       40.00          0.1815E+06
  17570      1    101    170       39.50          0.1815E+06
  17571      1    101    171       39.30          0.1815E+06
  17572      1    101    172       38.70          0.1815E+06
  17573      1    101    173       38.40          0.1815E+06
  17574      1    101    174       40.20          0.1815E+06
  17575      1    102      1      -11.02          0.1815E+06
  17576      1    102      2      -9.890          0.1815E+06
  17577      1    102      3      -9.890          0.1815E+06
  17578      1    102      4      -9.500          0.1815E+06
  17579      1    102      5      -10.10          0.1815E+06
  17580      1    102      6      -10.20          0.1815E+06
  17581      1    102      7      -10.60          0.1815E+06
  17582      1    102      8      -10.40          0.1815E+06
  17583      1    102      9      -10.40          0.1815E+06
  17584      1    102     10      -10.60          0.1815E+06
  17585      1    102     11      -10.90          0.1815E+06
  17586      1    102     12      -10.90          0.1815E+06
  17587      1    102     13      -11.55          0.1815E+06
  17588      1    102     14      -11.61          0.1815E+06
  17589      1    102     15      -11.61          0.1815E+06
  17590      1    102     16      -11.21          0.1815E+06
  17591      1    102     17      -11.01          0.1815E+06
  17592      1    102     18      -10.51          0.1815E+06
  17593      1    102     19      -10.01          0.1815E+06
  17594      1    102     20      -9.810          0.1815E+06
  17595      1    102     21      -9.810          0.1815E+06
  17596      1    102     22      -7.870          0.1815E+06
  17597      1    102     23      -7.270          0.1815E+06
  17598      1    102     24      -6.900          0.1815E+06
  17599      1    102     25      -6.500          0.1815E+06
  17600      1    102     26      -6.500          0.1815E+06
  17601      1    102     27      -6.100          0.1815E+06
  17602      1    102     28      -5.550          0.1815E+06
  17603      1    102     29      -4.870          0.1815E+06
  17604      1    102     30      -4.130          0.1815E+06
  17605      1    102     31      -3.440          0.1815E+06
  17606      1    102     32      -3.440          0.1815E+06
  17607      1    102     33      -3.270          0.1815E+06
  17608      1    102     34      -2.690          0.1815E+06
  17609      1    102     35      -2.120          0.1815E+06
  17610      1    102     36     -0.8600          0.1815E+06
  17611      1    102     37     -0.2500          0.1815E+06
  17612      1    102     38     -0.2500          0.1815E+06
  17613      1    102     39      0.5000          0.1815E+06
  17614      1    102     40      0.5000          0.1815E+06
  17615      1    102     41       1.510          0.1815E+06
  17616      1    102     42       2.520          0.1815E+06
  17617      1    102     43       3.520          0.1815E+06
  17618      1    102     44       3.520          0.1815E+06
  17619      1    102     45       4.520          0.1815E+06
  17620      1    102     46       5.530          0.1815E+06
  17621      1    102     47       9.000          0.1815E+06
  17622      1    102     48       8.510          0.1815E+06
  17623      1    102     49       9.270          0.1815E+06
  17624      1    102     50       8.720          0.1815E+06
  17625      1    102     51       8.820          0.1815E+06
  17626      1    102     52       9.070          0.1815E+06
  17627      1    102     53       9.150          0.1815E+06
  17628      1    102     54       9.010          0.1815E+06
  17629      1    102     55       9.180          0.1815E+06
  17630      1    102     56       10.02          0.1815E+06
  17631      1    102     57       10.57          0.1815E+06
  17632      1    102     58       9.750          0.1815E+06
  17633      1    102     59       9.380          0.1815E+06
  17634      1    102     60       9.060          0.1815E+06
  17635      1    102     61       9.030          0.1815E+06
  17636      1    102     62       8.510          0.1815E+06
  17637      1    102     63       8.800          0.1815E+06
  17638      1    102     64       7.880          0.1815E+06
  17639      1    102     65       7.190          0.1815E+06
  17640      1    102     66       7.110          0.1815E+06
  17641      1    102     67       10.19          0.1815E+06
  17642      1    102     68       11.53          0.1815E+06
  17643      1    102     69       10.72          0.1815E+06
  17644      1    102     70       7.900          0.1815E+06
  17645      1    102     71       9.440          0.1815E+06
  17646      1    102     72       11.02          0.1815E+06
  17647      1    102     73       11.85          0.1815E+06
  17648      1    102     74       12.32          0.1815E+06
  17649      1    102     75       12.44          0.1815E+06
  17650      1    102     76       12.39          0.1815E+06
  17651      1    102     77       12.42          0.1815E+06
  17652      1    102     78       12.13          0.1815E+06
  17653      1    102     79       11.88          0.1815E+06
  17654      1    102     80       11.56          0.1815E+06
  17655      1    102     81       11.18          0.1815E+06
  17656      1    102     82       12.75          0.1815E+06
  17657      1    102     83       13.60          0.1815E+06
  17658      1    102     84       14.30          0.1815E+06
  17659      1    102     85       15.70          0.1815E+06
  17660      1    102     86       17.10          0.1815E+06
  17661      1    102     87       17.70          0.1815E+06
  17662      1    102     88       17.10          0.1815E+06
  17663      1    102     89       15.50          0.1815E+06
  17664      1    102     90       14.00          0.1815E+06
  17665      1    102     91       12.20          0.1815E+06
  17666      1    102     92       10.56          0.1815E+06
  17667      1    102     93       8.810          0.1815E+06
  17668      1    102     94       7.800          0.1815E+06
  17669      1    102     95       7.570          0.1815E+06
  17670      1    102     96       8.300          0.1815E+06
  17671      1    102     97       8.230          0.1815E+06
  17672      1    102     98       9.880          0.1815E+06
  17673      1    102     99       9.980          0.1815E+06
  17674      1    102    100       13.40          0.1815E+06
  17675      1    102    101       15.90          0.1815E+06
  17676      1    102    102       20.80          0.1815E+06
  17677      1    102    103       24.60          0.1815E+06
  17678      1    102    104       27.80          0.1815E+06
  17679      1    102    105       29.10          0.1815E+06
  17680      1    102    106       29.50          0.1815E+06
  17681      1    102    107       30.80          0.1815E+06
  17682      1    102    108       31.90          0.1815E+06
  17683      1    102    109       31.40          0.1815E+06
  17684      1    102    110       27.90          0.1815E+06
  17685      1    102    111       21.20          0.1815E+06
  17686      1    102    112       20.30          0.1815E+06
  17687      1    102    113       23.30          0.1815E+06
  17688      1    102    114       24.20          0.1815E+06
  17689      1    102    115       27.00          0.1815E+06
  17690      1    102    116       28.00          0.1815E+06
  17691      1    102    117       29.10          0.1815E+06
  17692      1    102    118       29.30          0.1815E+06
  17693      1    102    119       28.90          0.1815E+06
  17694      1    102    120       29.80          0.1815E+06
  17695      1    102    121       32.20          0.1815E+06
  17696      1    102    122       34.90          0.1815E+06
  17697      1    102    123       35.60          0.1815E+06
  17698      1    102    124       38.30          0.1815E+06
  17699      1    102    125       39.90          0.1815E+06
  17700      1    102    126       42.50          0.1815E+06
  17701      1    102    127       46.20          0.1815E+06
  17702      1    102    128       52.00          0.1815E+06
  17703      1    102    129       57.70          0.1815E+06
  17704      1    102    130       59.60          0.1815E+06
  17705      1    102    131       60.00          0.1815E+06
  17706      1    102    132       60.90          0.1815E+06
  17707      1    102    133       63.40          0.1815E+06
  17708      1    102    134       65.50          0.1815E+06
  17709      1    102    135       68.30          0.1815E+06
  17710      1    102    136       70.30          0.1815E+06
  17711      1    102    137       73.00          0.1815E+06
  17712      1    102    138       75.40          0.1815E+06
  17713      1    102    139       78.30          0.1815E+06
  17714      1    102    140       79.90          0.1815E+06
  17715      1    102    141       81.70          0.1815E+06
  17716      1    102    142       83.40          0.1815E+06
  17717      1    102    143       84.30          0.1815E+06
  17718      1    102    144       84.60          0.1815E+06
  17719      1    102    145       83.90          0.1815E+06
  17720      1    102    146       83.70          0.1815E+06
  17721      1    102    147       84.10          0.1815E+06
  17722      1    102    148       84.20          0.1815E+06
  17723      1    102    149       84.00          0.1815E+06
  17724      1    102    150       83.30          0.1815E+06
  17725      1    102    151       83.00          0.1815E+06
  17726      1    102    152       83.30          0.1815E+06
  17727      1    102    153       83.60          0.1815E+06
  17728      1    102    154       83.60          0.1815E+06
  17729      1    102    155       83.20          0.1815E+06
  17730      1    102    156       81.70          0.1815E+06
  17731      1    102    157       78.30          0.1815E+06
  17732      1    102    158       76.30          0.1815E+06
  17733      1    102    159       76.20          0.1815E+06
  17734      1    102    160       73.40          0.1815E+06
  17735      1    102    161       67.00          0.1815E+06
  17736      1    102    162       59.40          0.1815E+06
  17737      1    102    163       53.40          0.1815E+06
  17738      1    102    164       49.20          0.1815E+06
  17739      1    102    165       45.90          0.1815E+06
  17740      1    102    166       43.60          0.1815E+06
  17741      1    102    167       42.00          0.1815E+06
  17742      1    102    168       40.40          0.1815E+06
  17743      1    102    169       39.00          0.1815E+06
  17744      1    102    170       38.60          0.1815E+06
  17745      1    102    171       38.70          0.1815E+06
  17746      1    102    172       39.10          0.1815E+06
  17747      1    102    173       40.40          0.1815E+06
  17748      1    102    174       41.20          0.1815E+06
  17749      1    103      1      -10.89          0.1815E+06
  17750      1    103      2      -10.20          0.1815E+06
  17751      1    103      3      -10.20          0.1815E+06
  17752      1    103      4      -9.800          0.1815E+06
  17753      1    103      5      -9.900          0.1815E+06
  17754      1    103      6      -10.00          0.1815E+06
  17755      1    103      7      -10.60          0.1815E+06
  17756      1    103      8      -10.60          0.1815E+06
  17757      1    103      9      -10.60          0.1815E+06
  17758      1    103     10      -9.900          0.1815E+06
  17759      1    103     11      -8.710          0.1815E+06
  17760      1    103     12      -10.90          0.1815E+06
  17761      1    103     13      -11.51          0.1815E+06
  17762      1    103     14      -11.72          0.1815E+06
  17763      1    103     15      -11.72          0.1815E+06
  17764      1    103     16      -11.38          0.1815E+06
  17765      1    103     17      -10.56          0.1815E+06
  17766      1    103     18      -9.510          0.1815E+06
  17767      1    103     19      -10.01          0.1815E+06
  17768      1    103     20      -9.810          0.1815E+06
  17769      1    103     21      -9.810          0.1815E+06
  17770      1    103     22      -7.870          0.1815E+06
  17771      1    103     23      -7.270          0.1815E+06
  17772      1    103     24      -6.790          0.1815E+06
  17773      1    103     25      -6.560          0.1815E+06
  17774      1    103     26      -6.560          0.1815E+06
  17775      1    103     27      -6.090          0.1815E+06
  17776      1    103     28      -5.800          0.1815E+06
  17777      1    103     29      -5.600          0.1815E+06
  17778      1    103     30      -5.200          0.1815E+06
  17779      1    103     31      -4.420          0.1815E+06
  17780      1    103     32      -4.420          0.1815E+06
  17781      1    103     33      -3.970          0.1815E+06
  17782      1    103     34      -3.660          0.1815E+06
  17783      1    103     35      -3.580          0.1815E+06
  17784      1    103     36      -2.730          0.1815E+06
  17785      1    103     37      -1.610          0.1815E+06
  17786      1    103     38      -1.610          0.1815E+06
  17787      1    103     39      0.4900          0.1815E+06
  17788      1    103     40      0.5000          0.1815E+06
  17789      1    103     41       1.500          0.1815E+06
  17790      1    103     42       1.520          0.1815E+06
  17791      1    103     43       2.520          0.1815E+06
  17792      1    103     44       2.520          0.1815E+06
  17793      1    103     45       4.520          0.1815E+06
  17794      1    103     46       5.670          0.1815E+06
  17795      1    103     47       10.52          0.1815E+06
  17796      1    103     48       8.980          0.1815E+06
  17797      1    103     49       8.930          0.1815E+06
  17798      1    103     50       8.220          0.1815E+06
  17799      1    103     51       8.390          0.1815E+06
  17800      1    103     52       8.760          0.1815E+06
  17801      1    103     53       9.000          0.1815E+06
  17802      1    103     54       9.180          0.1815E+06
  17803      1    103     55       9.350          0.1815E+06
  17804      1    103     56       9.600          0.1815E+06
  17805      1    103     57       10.26          0.1815E+06
  17806      1    103     58       9.590          0.1815E+06
  17807      1    103     59       10.39          0.1815E+06
  17808      1    103     60       9.360          0.1815E+06
  17809      1    103     61       8.890          0.1815E+06
  17810      1    103     62       8.600          0.1815E+06
  17811      1    103     63       8.140          0.1815E+06
  17812      1    103     64       8.020          0.1815E+06
  17813      1    103     65       7.170          0.1815E+06
  17814      1    103     66       7.440          0.1815E+06
  17815      1    103     67       9.860          0.1815E+06
  17816      1    103     68       10.60          0.1815E+06
  17817      1    103     69       8.900          0.1815E+06
  17818      1    103     70       8.890          0.1815E+06
  17819      1    103     71       10.60          0.1815E+06
  17820      1    103     72       11.18          0.1815E+06
  17821      1    103     73       11.65          0.1815E+06
  17822      1    103     74       11.84          0.1815E+06
  17823      1    103     75       12.39          0.1815E+06
  17824      1    103     76       11.77          0.1815E+06
  17825      1    103     77       11.85          0.1815E+06
  17826      1    103     78       11.48          0.1815E+06
  17827      1    103     79       11.22          0.1815E+06
  17828      1    103     80       10.52          0.1815E+06
  17829      1    103     81       10.38          0.1815E+06
  17830      1    103     82       13.20          0.1815E+06
  17831      1    103     83       13.20          0.1815E+06
  17832      1    103     84       13.60          0.1815E+06
  17833      1    103     85       15.70          0.1815E+06
  17834      1    103     86       16.30          0.1815E+06
  17835      1    103     87       16.30          0.1815E+06
  17836      1    103     88       16.30          0.1815E+06
  17837      1    103     89       15.20          0.1815E+06
  17838      1    103     90       12.80          0.1815E+06
  17839      1    103     91       10.49          0.1815E+06
  17840      1    103     92       9.270          0.1815E+06
  17841      1    103     93       7.860          0.1815E+06
  17842      1    103     94       7.210          0.1815E+06
  17843      1    103     95       7.590          0.1815E+06
  17844      1    103     96       9.260          0.1815E+06
  17845      1    103     97       10.23          0.1815E+06
  17846      1    103     98       10.70          0.1815E+06
  17847      1    103     99       11.60          0.1815E+06
  17848      1    103    100       13.30          0.1815E+06
  17849      1    103    101       16.60          0.1815E+06
  17850      1    103    102       20.10          0.1815E+06
  17851      1    103    103       24.70          0.1815E+06
  17852      1    103    104       27.20          0.1815E+06
  17853      1    103    105       28.60          0.1815E+06
  17854      1    103    106       30.20          0.1815E+06
  17855      1    103    107       31.20          0.1815E+06
  17856      1    103    108       31.50          0.1815E+06
  17857      1    103    109       31.20          0.1815E+06
  17858      1    103    110       29.60          0.1815E+06
  17859      1    103    111       25.90          0.1815E+06
  17860      1    103    112       21.60          0.1815E+06
  17861      1    103    113       21.30          0.1815E+06
  17862      1    103    114       22.70          0.1815E+06
  17863      1    103    115       23.40          0.1815E+06
  17864      1    103    116       23.70          0.1815E+06
  17865      1    103    117       24.40          0.1815E+06
  17866      1    103    118       24.00          0.1815E+06
  17867      1    103    119       26.90          0.1815E+06
  17868      1    103    120       31.00          0.1815E+06
  17869      1    103    121       33.90          0.1815E+06
  17870      1    103    122       36.30          0.1815E+06
  17871      1    103    123       38.80          0.1815E+06
  17872      1    103    124       41.00          0.1815E+06
  17873      1    103    125       43.10          0.1815E+06
  17874      1    103    126       46.90          0.1815E+06
  17875      1    103    127       49.10          0.1815E+06
  17876      1    103    128       51.50          0.1815E+06
  17877      1    103    129       53.60          0.1815E+06
  17878      1    103    130       55.80          0.1815E+06
  17879      1    103    131       59.20          0.1815E+06
  17880      1    103    132       62.80          0.1815E+06
  17881      1    103    133       67.50          0.1815E+06
  17882      1    103    134       71.30          0.1815E+06
  17883      1    103    135       72.20          0.1815E+06
  17884      1    103    136       74.10          0.1815E+06
  17885      1    103    137       76.10          0.1815E+06
  17886      1    103    138       77.80          0.1815E+06
  17887      1    103    139       79.90          0.1815E+06
  17888      1    103    140       80.80          0.1815E+06
  17889      1    103    141       82.00          0.1815E+06
  17890      1    103    142       83.00          0.1815E+06
  17891      1    103    143       83.70          0.1815E+06
  17892      1    103    144       83.90          0.1815E+06
  17893      1    103    145       82.20          0.1815E+06
  17894      1    103    146       82.50          0.1815E+06
  17895      1    103    147       83.50          0.1815E+06
  17896      1    103    148       83.60          0.1815E+06
  17897      1    103    149       83.10          0.1815E+06
  17898      1    103    150       82.60          0.1815E+06
  17899      1    103    151       81.90          0.1815E+06
  17900      1    103    152       82.20          0.1815E+06
  17901      1    103    153       82.90          0.1815E+06
  17902      1    103    154       83.50          0.1815E+06
  17903      1    103    155       83.10          0.1815E+06
  17904      1    103    156       80.80          0.1815E+06
  17905      1    103    157       74.10          0.1815E+06
  17906      1    103    158       70.00          0.1815E+06
  17907      1    103    159       69.70          0.1815E+06
  17908      1    103    160       67.00          0.1815E+06
  17909      1    103    161       62.40          0.1815E+06
  17910      1    103    162       55.90          0.1815E+06
  17911      1    103    163       50.30          0.1815E+06
  17912      1    103    164       46.70          0.1815E+06
  17913      1    103    165       44.00          0.1815E+06
  17914      1    103    166       42.20          0.1815E+06
  17915      1    103    167       40.90          0.1815E+06
  17916      1    103    168       39.10          0.1815E+06
  17917      1    103    169       37.80          0.1815E+06
  17918      1    103    170       37.70          0.1815E+06
  17919      1    103    171       39.20          0.1815E+06
  17920      1    103    172       40.50          0.1815E+06
  17921      1    103    173       41.70          0.1815E+06
  17922      1    103    174       42.50          0.1815E+06
  17923      1    104      1      -9.650          0.1815E+06
  17924      1    104      2      -10.00          0.1815E+06
  17925      1    104      3      -10.00          0.1815E+06
  17926      1    104      4      -10.10          0.1815E+06
  17927      1    104      5      -10.20          0.1815E+06
  17928      1    104      6      -10.27          0.1815E+06
  17929      1    104      7      -10.37          0.1815E+06
  17930      1    104      8      -10.06          0.1815E+06
  17931      1    104      9      -10.06          0.1815E+06
  17932      1    104     10      -9.370          0.1815E+06
  17933      1    104     11      -9.210          0.1815E+06
  17934      1    104     12      -9.660          0.1815E+06
  17935      1    104     13      -11.41          0.1815E+06
  17936      1    104     14      -11.76          0.1815E+06
  17937      1    104     15      -11.76          0.1815E+06
  17938      1    104     16      -11.38          0.1815E+06
  17939      1    104     17      -10.56          0.1815E+06
  17940      1    104     18      -9.510          0.1815E+06
  17941      1    104     19      -9.510          0.1815E+06
  17942      1    104     20      -9.410          0.1815E+06
  17943      1    104     21      -9.410          0.1815E+06
  17944      1    104     22      -8.210          0.1815E+06
  17945      1    104     23      -8.110          0.1815E+06
  17946      1    104     24      -7.010          0.1815E+06
  17947      1    104     25      -6.810          0.1815E+06
  17948      1    104     26      -6.810          0.1815E+06
  17949      1    104     27      -6.010          0.1815E+06
  17950      1    104     28      -5.810          0.1815E+06
  17951      1    104     29      -6.320          0.1815E+06
  17952      1    104     30      -6.310          0.1815E+06
  17953      1    104     31      -5.500          0.1815E+06
  17954      1    104     32      -5.500          0.1815E+06
  17955      1    104     33      -4.800          0.1815E+06
  17956      1    104     34      -4.600          0.1815E+06
  17957      1    104     35      -5.000          0.1815E+06
  17958      1    104     36      -5.000          0.1815E+06
  17959      1    104     37      -5.000          0.1815E+06
  17960      1    104     38      -5.000          0.1815E+06
  17961      1    104     39      -4.800          0.1815E+06
  17962      1    104     40      0.5000          0.1815E+06
  17963      1    104     41       1.500          0.1815E+06
  17964      1    104     42       1.520          0.1815E+06
  17965      1    104     43       2.520          0.1815E+06
  17966      1    104     44       2.520          0.1815E+06
  17967      1    104     45       3.520          0.1815E+06
  17968      1    104     46       6.530          0.1815E+06
  17969      1    104     47       13.47          0.1815E+06
  17970      1    104     48       7.650          0.1815E+06
  17971      1    104     49       8.890          0.1815E+06
  17972      1    104     50       9.190          0.1815E+06
  17973      1    104     51       8.180          0.1815E+06
  17974      1    104     52       8.260          0.1815E+06
  17975      1    104     53       9.640          0.1815E+06
  17976      1    104     54       9.930          0.1815E+06
  17977      1    104     55       9.170          0.1815E+06
  17978      1    104     56       9.520          0.1815E+06
  17979      1    104     57       9.930          0.1815E+06
  17980      1    104     58       9.480          0.1815E+06
  17981      1    104     59       9.280          0.1815E+06
  17982      1    104     60       9.840          0.1815E+06
  17983      1    104     61       8.960          0.1815E+06
  17984      1    104     62       8.560          0.1815E+06
  17985      1    104     63       8.260          0.1815E+06
  17986      1    104     64       8.310          0.1815E+06
  17987      1    104     65       7.710          0.1815E+06
  17988      1    104     66       7.670          0.1815E+06
  17989      1    104     67       8.030          0.1815E+06
  17990      1    104     68       9.960          0.1815E+06
  17991      1    104     69       8.300          0.1815E+06
  17992      1    104     70       7.050          0.1815E+06
  17993      1    104     71       10.15          0.1815E+06
  17994      1    104     72       11.23          0.1815E+06
  17995      1    104     73       11.35          0.1815E+06
  17996      1    104     74       11.32          0.1815E+06
  17997      1    104     75       11.46          0.1815E+06
  17998      1    104     76       11.51          0.1815E+06
  17999      1    104     77       11.09          0.1815E+06
  18000      1    104     78       10.64          0.1815E+06
  18001      1    104     79       9.770          0.1815E+06
  18002      1    104     80       8.500          0.1815E+06
  18003      1    104     81       12.18          0.1815E+06
  18004      1    104     82       12.90          0.1815E+06
  18005      1    104     83       13.10          0.1815E+06
  18006      1    104     84       13.60          0.1815E+06
  18007      1    104     85       14.90          0.1815E+06
  18008      1    104     86       14.90          0.1815E+06
  18009      1    104     87       14.40          0.1815E+06
  18010      1    104     88       14.40          0.1815E+06
  18011      1    104     89       13.05          0.1815E+06
  18012      1    104     90       9.900          0.1815E+06
  18013      1    104     91       7.960          0.1815E+06
  18014      1    104     92       7.210          0.1815E+06
  18015      1    104     93       6.820          0.1815E+06
  18016      1    104     94       7.300          0.1815E+06
  18017      1    104     95       7.840          0.1815E+06
  18018      1    104     96       9.860          0.1815E+06
  18019      1    104     97       11.30          0.1815E+06
  18020      1    104     98       12.00          0.1815E+06
  18021      1    104     99       12.50          0.1815E+06
  18022      1    104    100       14.10          0.1815E+06
  18023      1    104    101       17.10          0.1815E+06
  18024      1    104    102       21.00          0.1815E+06
  18025      1    104    103       23.60          0.1815E+06
  18026      1    104    104       26.10          0.1815E+06
  18027      1    104    105       28.40          0.1815E+06
  18028      1    104    106       30.30          0.1815E+06
  18029      1    104    107       31.40          0.1815E+06
  18030      1    104    108       31.70          0.1815E+06
  18031      1    104    109       31.20          0.1815E+06
  18032      1    104    110       29.20          0.1815E+06
  18033      1    104    111       25.90          0.1815E+06
  18034      1    104    112       23.60          0.1815E+06
  18035      1    104    113       23.10          0.1815E+06
  18036      1    104    114       23.40          0.1815E+06
  18037      1    104    115       23.60          0.1815E+06
  18038      1    104    116       23.30          0.1815E+06
  18039      1    104    117       23.10          0.1815E+06
  18040      1    104    118       23.90          0.1815E+06
  18041      1    104    119       26.00          0.1815E+06
  18042      1    104    120       30.80          0.1815E+06
  18043      1    104    121       34.00          0.1815E+06
  18044      1    104    122       36.50          0.1815E+06
  18045      1    104    123       38.60          0.1815E+06
  18046      1    104    124       40.80          0.1815E+06
  18047      1    104    125       43.60          0.1815E+06
  18048      1    104    126       47.50          0.1815E+06
  18049      1    104    127       51.40          0.1815E+06
  18050      1    104    128       55.40          0.1815E+06
  18051      1    104    129       59.00          0.1815E+06
  18052      1    104    130       62.80          0.1815E+06
  18053      1    104    131       66.10          0.1815E+06
  18054      1    104    132       67.90          0.1815E+06
  18055      1    104    133       70.80          0.1815E+06
  18056      1    104    134       73.30          0.1815E+06
  18057      1    104    135       75.70          0.1815E+06
  18058      1    104    136       78.10          0.1815E+06
  18059      1    104    137       79.40          0.1815E+06
  18060      1    104    138       81.00          0.1815E+06
  18061      1    104    139       81.80          0.1815E+06
  18062      1    104    140       82.30          0.1815E+06
  18063      1    104    141       82.70          0.1815E+06
  18064      1    104    142       83.20          0.1815E+06
  18065      1    104    143       83.80          0.1815E+06
  18066      1    104    144       83.40          0.1815E+06
  18067      1    104    145       81.50          0.1815E+06
  18068      1    104    146       80.50          0.1815E+06
  18069      1    104    147       82.60          0.1815E+06
  18070      1    104    148       83.10          0.1815E+06
  18071      1    104    149       82.30          0.1815E+06
  18072      1    104    150       81.70          0.1815E+06
  18073      1    104    151       81.10          0.1815E+06
  18074      1    104    152       80.60          0.1815E+06
  18075      1    104    153       81.70          0.1815E+06
  18076      1    104    154       83.60          0.1815E+06
  18077      1    104    155       82.60          0.1815E+06
  18078      1    104    156       78.60          0.1815E+06
  18079      1    104    157       69.80          0.1815E+06
  18080      1    104    158       62.00          0.1815E+06
  18081      1    104    159       60.70          0.1815E+06
  18082      1    104    160       60.00          0.1815E+06
  18083      1    104    161       56.10          0.1815E+06
  18084      1    104    162       51.60          0.1815E+06
  18085      1    104    163       47.50          0.1815E+06
  18086      1    104    164       44.60          0.1815E+06
  18087      1    104    165       42.60          0.1815E+06
  18088      1    104    166       40.50          0.1815E+06
  18089      1    104    167       38.80          0.1815E+06
  18090      1    104    168       37.50          0.1815E+06
  18091      1    104    169       37.20          0.1815E+06
  18092      1    104    170       38.40          0.1815E+06
  18093      1    104    171       40.50          0.1815E+06
  18094      1    104    172       41.90          0.1815E+06
  18095      1    104    173       42.30          0.1815E+06
  18096      1    104    174       42.90          0.1815E+06
  18097      1    105      1      -9.200          0.1815E+06
  18098      1    105      2      -9.600          0.1815E+06
  18099      1    105      3      -9.600          0.1815E+06
  18100      1    105      4      -8.610          0.1815E+06
  18101      1    105      5      -9.160          0.1815E+06
  18102      1    105      6      -9.860          0.1815E+06
  18103      1    105      7      -10.01          0.1815E+06
  18104      1    105      8      -9.560          0.1815E+06
  18105      1    105      9      -9.560          0.1815E+06
  18106      1    105     10      -9.210          0.1815E+06
  18107      1    105     11      -9.210          0.1815E+06
  18108      1    105     12      -9.660          0.1815E+06
  18109      1    105     13      -11.41          0.1815E+06
  18110      1    105     14      -11.76          0.1815E+06
  18111      1    105     15      -11.76          0.1815E+06
  18112      1    105     16      -10.91          0.1815E+06
  18113      1    105     17      -10.71          0.1815E+06
  18114      1    105     18      -9.970          0.1815E+06
  18115      1    105     19      -9.670          0.1815E+06
  18116      1    105     20      -9.010          0.1815E+06
  18117      1    105     21      -9.010          0.1815E+06
  18118      1    105     22      -9.060          0.1815E+06
  18119      1    105     23      -9.410          0.1815E+06
  18120      1    105     24      -8.810          0.1815E+06
  18121      1    105     25      -7.010          0.1815E+06
  18122      1    105     26      -7.010          0.1815E+06
  18123      1    105     27      -6.760          0.1815E+06
  18124      1    105     28      -7.460          0.1815E+06
  18125      1    105     29      -7.710          0.1815E+06
  18126      1    105     30      -6.850          0.1815E+06
  18127      1    105     31      -6.600          0.1815E+06
  18128      1    105     32      -6.600          0.1815E+06
  18129      1    105     33      -6.600          0.1815E+06
  18130      1    105     34      -6.000          0.1815E+06
  18131      1    105     35      -5.000          0.1815E+06
  18132      1    105     36      -5.000          0.1815E+06
  18133      1    105     37      -5.000          0.1815E+06
  18134      1    105     38      -5.000          0.1815E+06
  18135      1    105     39      -4.800          0.1815E+06
  18136      1    105     40      -4.200          0.1815E+06
  18137      1    105     41      0.5100          0.1815E+06
  18138      1    105     42      0.5100          0.1815E+06
  18139      1    105     43       1.510          0.1815E+06
  18140      1    105     44       1.510          0.1815E+06
  18141      1    105     45       2.520          0.1815E+06
  18142      1    105     46       4.530          0.1815E+06
  18143      1    105     47       8.040          0.1815E+06
  18144      1    105     48       11.19          0.1815E+06
  18145      1    105     49       7.300          0.1815E+06
  18146      1    105     50       7.750          0.1815E+06
  18147      1    105     51       7.860          0.1815E+06
  18148      1    105     52       9.180          0.1815E+06
  18149      1    105     53       8.640          0.1815E+06
  18150      1    105     54       10.57          0.1815E+06
  18151      1    105     55       9.420          0.1815E+06
  18152      1    105     56       9.470          0.1815E+06
  18153      1    105     57       9.520          0.1815E+06
  18154      1    105     58       9.460          0.1815E+06
  18155      1    105     59       9.350          0.1815E+06
  18156      1    105     60       9.090          0.1815E+06
  18157      1    105     61       8.710          0.1815E+06
  18158      1    105     62       8.550          0.1815E+06
  18159      1    105     63       8.220          0.1815E+06
  18160      1    105     64       8.170          0.1815E+06
  18161      1    105     65       7.730          0.1815E+06
  18162      1    105     66       7.760          0.1815E+06
  18163      1    105     67       8.760          0.1815E+06
  18164      1    105     68       10.55          0.1815E+06
  18165      1    105     69       10.72          0.1815E+06
  18166      1    105     70       8.520          0.1815E+06
  18167      1    105     71       7.400          0.1815E+06
  18168      1    105     72       9.390          0.1815E+06
  18169      1    105     73       10.14          0.1815E+06
  18170      1    105     74       10.22          0.1815E+06
  18171      1    105     75       10.56          0.1815E+06
  18172      1    105     76       10.46          0.1815E+06
  18173      1    105     77       10.18          0.1815E+06
  18174      1    105     78       9.600          0.1815E+06
  18175      1    105     79       8.710          0.1815E+06
  18176      1    105     80       10.19          0.1815E+06
  18177      1    105     81       11.80          0.1815E+06
  18178      1    105     82       12.20          0.1815E+06
  18179      1    105     83       12.60          0.1815E+06
  18180      1    105     84       13.20          0.1815E+06
  18181      1    105     85       13.50          0.1815E+06
  18182      1    105     86       12.50          0.1815E+06
  18183      1    105     87       10.26          0.1815E+06
  18184      1    105     88       10.10          0.1815E+06
  18185      1    105     89       8.300          0.1815E+06
  18186      1    105     90       7.380          0.1815E+06
  18187      1    105     91       6.070          0.1815E+06
  18188      1    105     92       7.150          0.1815E+06
  18189      1    105     93       7.880          0.1815E+06
  18190      1    105     94       8.810          0.1815E+06
  18191      1    105     95       9.170          0.1815E+06
  18192      1    105     96       9.730          0.1815E+06
  18193      1    105     97       11.90          0.1815E+06
  18194      1    105     98       12.90          0.1815E+06
  18195      1    105     99       13.70          0.1815E+06
  18196      1    105    100       14.70          0.1815E+06
  18197      1    105    101       18.90          0.1815E+06
  18198      1    105    102       22.40          0.1815E+06
  18199      1    105    103       23.90          0.1815E+06
  18200      1    105    104       25.90          0.1815E+06
  18201      1    105    105       28.40          0.1815E+06
  18202      1    105    106       30.30          0.1815E+06
  18203      1    105    107       31.50          0.1815E+06
  18204      1    105    108       31.80          0.1815E+06
  18205      1    105    109       31.00          0.1815E+06
  18206      1    105    110       28.30          0.1815E+06
  18207      1    105    111       25.10          0.1815E+06
  18208      1    105    112       25.10          0.1815E+06
  18209      1    105    113       25.70          0.1815E+06
  18210      1    105    114       25.00          0.1815E+06
  18211      1    105    115       25.60          0.1815E+06
  18212      1    105    116       25.00          0.1815E+06
  18213      1    105    117       24.50          0.1815E+06
  18214      1    105    118       25.50          0.1815E+06
  18215      1    105    119       26.70          0.1815E+06
  18216      1    105    120       29.20          0.1815E+06
  18217      1    105    121       31.40          0.1815E+06
  18218      1    105    122       34.80          0.1815E+06
  18219      1    105    123       36.70          0.1815E+06
  18220      1    105    124       38.80          0.1815E+06
  18221      1    105    125       42.10          0.1815E+06
  18222      1    105    126       46.30          0.1815E+06
  18223      1    105    127       49.90          0.1815E+06
  18224      1    105    128       54.60          0.1815E+06
  18225      1    105    129       59.40          0.1815E+06
  18226      1    105    130       64.10          0.1815E+06
  18227      1    105    131       66.80          0.1815E+06
  18228      1    105    132       67.50          0.1815E+06
  18229      1    105    133       70.40          0.1815E+06
  18230      1    105    134       74.70          0.1815E+06
  18231      1    105    135       78.60          0.1815E+06
  18232      1    105    136       80.80          0.1815E+06
  18233      1    105    137       81.80          0.1815E+06
  18234      1    105    138       82.80          0.1815E+06
  18235      1    105    139       83.10          0.1815E+06
  18236      1    105    140       83.10          0.1815E+06
  18237      1    105    141       83.00          0.1815E+06
  18238      1    105    142       83.10          0.1815E+06
  18239      1    105    143       83.40          0.1815E+06
  18240      1    105    144       82.90          0.1815E+06
  18241      1    105    145       81.50          0.1815E+06
  18242      1    105    146       79.80          0.1815E+06
  18243      1    105    147       81.40          0.1815E+06
  18244      1    105    148       82.30          0.1815E+06
  18245      1    105    149       79.80          0.1815E+06
  18246      1    105    150       78.20          0.1815E+06
  18247      1    105    151       79.20          0.1815E+06
  18248      1    105    152       78.80          0.1815E+06
  18249      1    105    153       80.50          0.1815E+06
  18250      1    105    154       82.90          0.1815E+06
  18251      1    105    155       81.70          0.1815E+06
  18252      1    105    156       75.80          0.1815E+06
  18253      1    105    157       65.80          0.1815E+06
  18254      1    105    158       56.30          0.1815E+06
  18255      1    105    159       53.60          0.1815E+06
  18256      1    105    160       53.30          0.1815E+06
  18257      1    105    161       51.10          0.1815E+06
  18258      1    105    162       47.90          0.1815E+06
  18259      1    105    163       44.90          0.1815E+06
  18260      1    105    164       43.20          0.1815E+06
  18261      1    105    165       41.90          0.1815E+06
  18262      1    105    166       39.10          0.1815E+06
  18263      1    105    167       36.10          0.1815E+06
  18264      1    105    168       36.10          0.1815E+06
  18265      1    105    169       37.80          0.1815E+06
  18266      1    105    170       40.80          0.1815E+06
  18267      1    105    171       41.50          0.1815E+06
  18268      1    105    172       41.70          0.1815E+06
  18269      1    105    173       42.00          0.1815E+06
  18270      1    105    174       42.50          0.1815E+06
  18271      1    106      1      -9.200          0.1815E+06
  18272      1    106      2      -9.600          0.1815E+06
  18273      1    106      3      -9.600          0.1815E+06
  18274      1    106      4      -8.610          0.1815E+06
  18275      1    106      5      -9.160          0.1815E+06
  18276      1    106      6      -9.860          0.1815E+06
  18277      1    106      7      -10.01          0.1815E+06
  18278      1    106      8      -9.560          0.1815E+06
  18279      1    106      9      -9.560          0.1815E+06
  18280      1    106     10      -9.210          0.1815E+06
  18281      1    106     11      -9.210          0.1815E+06
  18282      1    106     12      -9.660          0.1815E+06
  18283      1    106     13      -11.41          0.1815E+06
  18284      1    106     14      -11.76          0.1815E+06
  18285      1    106     15      -11.76          0.1815E+06
  18286      1    106     16      -10.91          0.1815E+06
  18287      1    106     17      -10.71          0.1815E+06
  18288      1    106     18      -9.970          0.1815E+06
  18289      1    106     19      -9.670          0.1815E+06
  18290      1    106     20      -9.010          0.1815E+06
  18291      1    106     21      -9.010          0.1815E+06
  18292      1    106     22      -9.060          0.1815E+06
  18293      1    106     23      -9.410          0.1815E+06
  18294      1    106     24      -8.810          0.1815E+06
  18295      1    106     25      -7.010          0.1815E+06
  18296      1    106     26      -7.010          0.1815E+06
  18297      1    106     27      -6.760          0.1815E+06
  18298      1    106     28      -7.460          0.1815E+06
  18299      1    106     29      -7.710          0.1815E+06
  18300      1    106     30      -6.850          0.1815E+06
  18301      1    106     31      -6.600          0.1815E+06
  18302      1    106     32      -6.600          0.1815E+06
  18303      1    106     33      -6.600          0.1815E+06
  18304      1    106     34      -6.000          0.1815E+06
  18305      1    106     35      -5.000          0.1815E+06
  18306      1    106     36      -5.000          0.1815E+06
  18307      1    106     37      -5.000          0.1815E+06
  18308      1    106     38      -5.000          0.1815E+06
  18309      1    106     39      -4.800          0.1815E+06
  18310      1    106     40      -4.200          0.1815E+06
  18311      1    106     41      0.5100          0.1815E+06
  18312      1    106     42      0.5100          0.1815E+06
  18313      1    106     43       1.510          0.1815E+06
  18314      1    106     44       1.510          0.1815E+06
  18315      1    106     45       2.520          0.1815E+06
  18316      1    106     46       4.530          0.1815E+06
  18317      1    106     47       8.040          0.1815E+06
  18318      1    106     48       14.34          0.1815E+06
  18319      1    106     49       7.860          0.1815E+06
  18320      1    106     50       7.900          0.1815E+06
  18321      1    106     51       7.780          0.1815E+06
  18322      1    106     52       8.600          0.1815E+06
  18323      1    106     53       8.770          0.1815E+06
  18324      1    106     54       9.190          0.1815E+06
  18325      1    106     55       9.780          0.1815E+06
  18326      1    106     56       9.840          0.1815E+06
  18327      1    106     57       9.470          0.1815E+06
  18328      1    106     58       9.350          0.1815E+06
  18329      1    106     59       9.390          0.1815E+06
  18330      1    106     60       9.000          0.1815E+06
  18331      1    106     61       9.310          0.1815E+06
  18332      1    106     62       8.390          0.1815E+06
  18333      1    106     63       8.390          0.1815E+06
  18334      1    106     64       7.530          0.1815E+06
  18335      1    106     65       8.420          0.1815E+06
  18336      1    106     66       7.800          0.1815E+06
  18337      1    106     67       8.270          0.1815E+06
  18338      1    106     68       10.05          0.1815E+06
  18339      1    106     69       10.73          0.1815E+06
  18340      1    106     70       10.85          0.1815E+06
  18341      1    106     71       8.960          0.1815E+06
  18342      1    106     72       6.960          0.1815E+06
  18343      1    106     73       7.570          0.1815E+06
  18344      1    106     74       8.520          0.1815E+06
  18345      1    106     75       8.890          0.1815E+06
  18346      1    106     76       8.890          0.1815E+06
  18347      1    106     77       8.430          0.1815E+06
  18348      1    106     78       7.840          0.1815E+06
  18349      1    106     79       9.890          0.1815E+06
  18350      1    106     80       11.40          0.1815E+06
  18351      1    106     81       11.60          0.1815E+06
  18352      1    106     82       11.80          0.1815E+06
  18353      1    106     83       12.20          0.1815E+06
  18354      1    106     84       12.60          0.1815E+06
  18355      1    106     85       12.60          0.1815E+06
  18356      1    106     86       11.07          0.1815E+06
  18357      1    106     87       8.670          0.1815E+06
  18358      1    106     88       6.610          0.1815E+06
  18359      1    106     89       6.320          0.1815E+06
  18360      1    106     90       6.130          0.1815E+06
  18361      1    106     91       7.880          0.1815E+06
  18362      1    106     92       8.960          0.1815E+06
  18363      1    106     93       10.20          0.1815E+06
  18364      1    106     94       10.72          0.1815E+06
  18365      1    106     95       10.84          0.1815E+06
  18366      1    106     96       11.90          0.1815E+06
  18367      1    106     97       13.10          0.1815E+06
  18368      1    106     98       14.10          0.1815E+06
  18369      1    106     99       14.60          0.1815E+06
  18370      1    106    100       16.40          0.1815E+06
  18371      1    106    101       20.40          0.1815E+06
  18372      1    106    102       23.80          0.1815E+06
  18373      1    106    103       25.40          0.1815E+06
  18374      1    106    104       26.80          0.1815E+06
  18375      1    106    105       28.80          0.1815E+06
  18376      1    106    106       30.80          0.1815E+06
  18377      1    106    107       32.20          0.1815E+06
  18378      1    106    108       31.70          0.1815E+06
  18379      1    106    109       30.40          0.1815E+06
  18380      1    106    110       28.50          0.1815E+06
  18381      1    106    111       25.40          0.1815E+06
  18382      1    106    112       26.70          0.1815E+06
  18383      1    106    113       27.60          0.1815E+06
  18384      1    106    114       27.80          0.1815E+06
  18385      1    106    115       28.40          0.1815E+06
  18386      1    106    116       27.90          0.1815E+06
  18387      1    106    117       27.00          0.1815E+06
  18388      1    106    118       28.20          0.1815E+06
  18389      1    106    119       29.70          0.1815E+06
  18390      1    106    120       30.40          0.1815E+06
  18391      1    106    121       31.40          0.1815E+06
  18392      1    106    122       33.70          0.1815E+06
  18393      1    106    123       35.00          0.1815E+06
  18394      1    106    124       37.90          0.1815E+06
  18395      1    106    125       41.80          0.1815E+06
  18396      1    106    126       45.60          0.1815E+06
  18397      1    106    127       49.10          0.1815E+06
  18398      1    106    128       53.20          0.1815E+06
  18399      1    106    129       57.50          0.1815E+06
  18400      1    106    130       60.80          0.1815E+06
  18401      1    106    131       63.30          0.1815E+06
  18402      1    106    132       66.20          0.1815E+06
  18403      1    106    133       71.70          0.1815E+06
  18404      1    106    134       76.80          0.1815E+06
  18405      1    106    135       79.60          0.1815E+06
  18406      1    106    136       81.70          0.1815E+06
  18407      1    106    137       82.50          0.1815E+06
  18408      1    106    138       83.30          0.1815E+06
  18409      1    106    139       83.50          0.1815E+06
  18410      1    106    140       83.60          0.1815E+06
  18411      1    106    141       83.20          0.1815E+06
  18412      1    106    142       82.20          0.1815E+06
  18413      1    106    143       80.90          0.1815E+06
  18414      1    106    144       80.60          0.1815E+06
  18415      1    106    145       80.40          0.1815E+06
  18416      1    106    146       78.10          0.1815E+06
  18417      1    106    147       80.10          0.1815E+06
  18418      1    106    148       80.50          0.1815E+06
  18419      1    106    149       76.10          0.1815E+06
  18420      1    106    150       73.70          0.1815E+06
  18421      1    106    151       76.20          0.1815E+06
  18422      1    106    152       76.30          0.1815E+06
  18423      1    106    153       79.00          0.1815E+06
  18424      1    106    154       80.10          0.1815E+06
  18425      1    106    155       78.50          0.1815E+06
  18426      1    106    156       72.70          0.1815E+06
  18427      1    106    157       64.10          0.1815E+06
  18428      1    106    158       54.20          0.1815E+06
  18429      1    106    159       49.50          0.1815E+06
  18430      1    106    160       48.60          0.1815E+06
  18431      1    106    161       47.30          0.1815E+06
  18432      1    106    162       45.30          0.1815E+06
  18433      1    106    163       43.20          0.1815E+06
  18434      1    106    164       41.70          0.1815E+06
  18435      1    106    165       41.10          0.1815E+06
  18436      1    106    166       38.20          0.1815E+06
  18437      1    106    167       34.50          0.1815E+06
  18438      1    106    168       35.00          0.1815E+06
  18439      1    106    169       40.70          0.1815E+06
  18440      1    106    170       41.40          0.1815E+06
  18441      1    106    171       40.80          0.1815E+06
  18442      1    106    172       40.90          0.1815E+06
  18443      1    106    173       40.80          0.1815E+06
  18444      1    106    174       41.00          0.1815E+06
  18445      1    107      1      -9.200          0.1815E+06
  18446      1    107      2      -10.05          0.1815E+06
  18447      1    107      3      -10.05          0.1815E+06
  18448      1    107      4      -10.61          0.1815E+06
  18449      1    107      5      -10.31          0.1815E+06
  18450      1    107      6      -9.860          0.1815E+06
  18451      1    107      7      -10.01          0.1815E+06
  18452      1    107      8      -9.560          0.1815E+06
  18453      1    107      9      -9.560          0.1815E+06
  18454      1    107     10      -9.210          0.1815E+06
  18455      1    107     11      -9.110          0.1815E+06
  18456      1    107     12      -9.410          0.1815E+06
  18457      1    107     13      -10.41          0.1815E+06
  18458      1    107     14      -11.51          0.1815E+06
  18459      1    107     15      -11.51          0.1815E+06
  18460      1    107     16      -11.12          0.1815E+06
  18461      1    107     17      -10.92          0.1815E+06
  18462      1    107     18      -10.52          0.1815E+06
  18463      1    107     19      -10.07          0.1815E+06
  18464      1    107     20      -8.820          0.1815E+06
  18465      1    107     21      -8.820          0.1815E+06
  18466      1    107     22      -10.01          0.1815E+06
  18467      1    107     23      -10.06          0.1815E+06
  18468      1    107     24      -9.910          0.1815E+06
  18469      1    107     25      -8.310          0.1815E+06
  18470      1    107     26      -8.310          0.1815E+06
  18471      1    107     27      -7.310          0.1815E+06
  18472      1    107     28      -6.910          0.1815E+06
  18473      1    107     29      -8.110          0.1815E+06
  18474      1    107     30      -6.850          0.1815E+06
  18475      1    107     31      -6.600          0.1815E+06
  18476      1    107     32      -6.600          0.1815E+06
  18477      1    107     33      -6.600          0.1815E+06
  18478      1    107     34      -6.000          0.1815E+06
  18479      1    107     35      -5.300          0.1815E+06
  18480      1    107     36      -5.100          0.1815E+06
  18481      1    107     37      -5.580          0.1815E+06
  18482      1    107     38      -5.580          0.1815E+06
  18483      1    107     39      -5.720          0.1815E+06
  18484      1    107     40      -3.440          0.1815E+06
  18485      1    107     41      -4.190          0.1815E+06
  18486      1    107     42      -4.190          0.1815E+06
  18487      1    107     43      0.5200          0.1815E+06
  18488      1    107     44      0.5200          0.1815E+06
  18489      1    107     45       2.530          0.1815E+06
  18490      1    107     46       3.530          0.1815E+06
  18491      1    107     47       4.550          0.1815E+06
  18492      1    107     48       6.730          0.1815E+06
  18493      1    107     49       9.470          0.1815E+06
  18494      1    107     50       7.280          0.1815E+06
  18495      1    107     51       8.230          0.1815E+06
  18496      1    107     52       8.020          0.1815E+06
  18497      1    107     53       8.630          0.1815E+06
  18498      1    107     54       9.820          0.1815E+06
  18499      1    107     55       8.940          0.1815E+06
  18500      1    107     56       8.780          0.1815E+06
  18501      1    107     57       9.630          0.1815E+06
  18502      1    107     58       9.180          0.1815E+06
  18503      1    107     59       9.090          0.1815E+06
  18504      1    107     60       8.970          0.1815E+06
  18505      1    107     61       8.680          0.1815E+06
  18506      1    107     62       8.670          0.1815E+06
  18507      1    107     63       8.640          0.1815E+06
  18508      1    107     64       8.050          0.1815E+06
  18509      1    107     65       8.390          0.1815E+06
  18510      1    107     66       8.470          0.1815E+06
  18511      1    107     67       8.130          0.1815E+06
  18512      1    107     68       8.520          0.1815E+06
  18513      1    107     69       9.390          0.1815E+06
  18514      1    107     70       9.340          0.1815E+06
  18515      1    107     71       8.470          0.1815E+06
  18516      1    107     72       6.820          0.1815E+06
  18517      1    107     73       6.610          0.1815E+06
  18518      1    107     74       7.070          0.1815E+06
  18519      1    107     75       6.460          0.1815E+06
  18520      1    107     76       7.000          0.1815E+06
  18521      1    107     77       7.250          0.1815E+06
  18522      1    107     78       8.770          0.1815E+06
  18523      1    107     79       9.590          0.1815E+06
  18524      1    107     80       9.630          0.1815E+06
  18525      1    107     81       10.49          0.1815E+06
  18526      1    107     82       12.10          0.1815E+06
  18527      1    107     83       12.40          0.1815E+06
  18528      1    107     84       12.40          0.1815E+06
  18529      1    107     85       11.69          0.1815E+06
  18530      1    107     86       9.680          0.1815E+06
  18531      1    107     87       6.780          0.1815E+06
  18532      1    107     88       6.650          0.1815E+06
  18533      1    107     89       8.060          0.1815E+06
  18534      1    107     90       10.07          0.1815E+06
  18535      1    107     91       11.38          0.1815E+06
  18536      1    107     92       12.29          0.1815E+06
  18537      1    107     93       13.00          0.1815E+06
  18538      1    107     94       13.30          0.1815E+06
  18539      1    107     95       13.10          0.1815E+06
  18540      1    107     96       13.90          0.1815E+06
  18541      1    107     97       14.90          0.1815E+06
  18542      1    107     98       15.70          0.1815E+06
  18543      1    107     99       16.70          0.1815E+06
  18544      1    107    100       19.10          0.1815E+06
  18545      1    107    101       22.50          0.1815E+06
  18546      1    107    102       25.00          0.1815E+06
  18547      1    107    103       27.20          0.1815E+06
  18548      1    107    104       28.50          0.1815E+06
  18549      1    107    105       29.90          0.1815E+06
  18550      1    107    106       32.40          0.1815E+06
  18551      1    107    107       33.40          0.1815E+06
  18552      1    107    108       32.90          0.1815E+06
  18553      1    107    109       30.50          0.1815E+06
  18554      1    107    110       29.20          0.1815E+06
  18555      1    107    111       29.40          0.1815E+06
  18556      1    107    112       30.10          0.1815E+06
  18557      1    107    113       29.40          0.1815E+06
  18558      1    107    114       29.80          0.1815E+06
  18559      1    107    115       31.20          0.1815E+06
  18560      1    107    116       31.30          0.1815E+06
  18561      1    107    117       30.30          0.1815E+06
  18562      1    107    118       31.00          0.1815E+06
  18563      1    107    119       32.20          0.1815E+06
  18564      1    107    120       32.90          0.1815E+06
  18565      1    107    121       34.20          0.1815E+06
  18566      1    107    122       35.70          0.1815E+06
  18567      1    107    123       36.80          0.1815E+06
  18568      1    107    124       38.40          0.1815E+06
  18569      1    107    125       41.80          0.1815E+06
  18570      1    107    126       45.20          0.1815E+06
  18571      1    107    127       48.40          0.1815E+06
  18572      1    107    128       51.50          0.1815E+06
  18573      1    107    129       54.30          0.1815E+06
  18574      1    107    130       57.50          0.1815E+06
  18575      1    107    131       62.40          0.1815E+06
  18576      1    107    132       67.60          0.1815E+06
  18577      1    107    133       73.50          0.1815E+06
  18578      1    107    134       78.50          0.1815E+06
  18579      1    107    135       81.00          0.1815E+06
  18580      1    107    136       82.00          0.1815E+06
  18581      1    107    137       82.80          0.1815E+06
  18582      1    107    138       83.40          0.1815E+06
  18583      1    107    139       83.60          0.1815E+06
  18584      1    107    140       83.30          0.1815E+06
  18585      1    107    141       82.70          0.1815E+06
  18586      1    107    142       81.70          0.1815E+06
  18587      1    107    143       79.50          0.1815E+06
  18588      1    107    144       76.90          0.1815E+06
  18589      1    107    145       77.70          0.1815E+06
  18590      1    107    146       75.50          0.1815E+06
  18591      1    107    147       74.90          0.1815E+06
  18592      1    107    148       76.60          0.1815E+06
  18593      1    107    149       72.80          0.1815E+06
  18594      1    107    150       69.50          0.1815E+06
  18595      1    107    151       71.90          0.1815E+06
  18596      1    107    152       70.70          0.1815E+06
  18597      1    107    153       73.10          0.1815E+06
  18598      1    107    154       75.00          0.1815E+06
  18599      1    107    155       73.20          0.1815E+06
  18600      1    107    156       67.90          0.1815E+06
  18601      1    107    157       60.60          0.1815E+06
  18602      1    107    158       52.90          0.1815E+06
  18603      1    107    159       48.70          0.1815E+06
  18604      1    107    160       44.90          0.1815E+06
  18605      1    107    161       43.30          0.1815E+06
  18606      1    107    162       42.50          0.1815E+06
  18607      1    107    163       41.80          0.1815E+06
  18608      1    107    164       40.80          0.1815E+06
  18609      1    107    165       39.70          0.1815E+06
  18610      1    107    166       36.60          0.1815E+06
  18611      1    107    167       34.00          0.1815E+06
  18612      1    107    168       35.50          0.1815E+06
  18613      1    107    169       38.80          0.1815E+06
  18614      1    107    170       39.60          0.1815E+06
  18615      1    107    171       39.30          0.1815E+06
  18616      1    107    172       40.00          0.1815E+06
  18617      1    107    173       40.00          0.1815E+06
  18618      1    107    174       40.80          0.1815E+06
  18619      1    108      1      -9.200          0.1815E+06
  18620      1    108      2      -10.05          0.1815E+06
  18621      1    108      3      -10.05          0.1815E+06
  18622      1    108      4      -10.61          0.1815E+06
  18623      1    108      5      -10.26          0.1815E+06
  18624      1    108      6      -9.510          0.1815E+06
  18625      1    108      7      -8.910          0.1815E+06
  18626      1    108      8      -8.910          0.1815E+06
  18627      1    108      9      -8.910          0.1815E+06
  18628      1    108     10      -9.810          0.1815E+06
  18629      1    108     11      -9.030          0.1815E+06
  18630      1    108     12      -9.310          0.1815E+06
  18631      1    108     13      -10.00          0.1815E+06
  18632      1    108     14      -11.72          0.1815E+06
  18633      1    108     15      -11.72          0.1815E+06
  18634      1    108     16      -12.12          0.1815E+06
  18635      1    108     17      -11.72          0.1815E+06
  18636      1    108     18      -11.22          0.1815E+06
  18637      1    108     19      -10.52          0.1815E+06
  18638      1    108     20      -9.420          0.1815E+06
  18639      1    108     21      -9.420          0.1815E+06
  18640      1    108     22      -10.07          0.1815E+06
  18641      1    108     23      -10.14          0.1815E+06
  18642      1    108     24      -9.920          0.1815E+06
  18643      1    108     25      -9.320          0.1815E+06
  18644      1    108     26      -9.320          0.1815E+06
  18645      1    108     27      -7.310          0.1815E+06
  18646      1    108     28      -6.910          0.1815E+06
  18647      1    108     29      -8.110          0.1815E+06
  18648      1    108     30      -7.560          0.1815E+06
  18649      1    108     31      -7.360          0.1815E+06
  18650      1    108     32      -7.360          0.1815E+06
  18651      1    108     33      -6.810          0.1815E+06
  18652      1    108     34      -6.460          0.1815E+06
  18653      1    108     35      -5.890          0.1815E+06
  18654      1    108     36      -5.670          0.1815E+06
  18655      1    108     37      -5.600          0.1815E+06
  18656      1    108     38      -5.600          0.1815E+06
  18657      1    108     39      -5.500          0.1815E+06
  18658      1    108     40      -4.900          0.1815E+06
  18659      1    108     41      -4.600          0.1815E+06
  18660      1    108     42      -3.500          0.1815E+06
  18661      1    108     43      -1.240          0.1815E+06
  18662      1    108     44      -1.240          0.1815E+06
  18663      1    108     45       1.530          0.1815E+06
  18664      1    108     46       2.540          0.1815E+06
  18665      1    108     47       4.540          0.1815E+06
  18666      1    108     48       6.540          0.1815E+06
  18667      1    108     49       6.540          0.1815E+06
  18668      1    108     50       6.730          0.1815E+06
  18669      1    108     51       8.130          0.1815E+06
  18670      1    108     52       9.600          0.1815E+06
  18671      1    108     53       8.970          0.1815E+06
  18672      1    108     54       8.680          0.1815E+06
  18673      1    108     55       8.960          0.1815E+06
  18674      1    108     56       9.060          0.1815E+06
  18675      1    108     57       9.100          0.1815E+06
  18676      1    108     58       9.060          0.1815E+06
  18677      1    108     59       9.770          0.1815E+06
  18678      1    108     60       9.170          0.1815E+06
  18679      1    108     61       8.930          0.1815E+06
  18680      1    108     62       8.860          0.1815E+06
  18681      1    108     63       8.650          0.1815E+06
  18682      1    108     64       8.550          0.1815E+06
  18683      1    108     65       8.000          0.1815E+06
  18684      1    108     66       8.780          0.1815E+06
  18685      1    108     67       8.530          0.1815E+06
  18686      1    108     68       8.420          0.1815E+06
  18687      1    108     69       8.180          0.1815E+06
  18688      1    108     70       8.060          0.1815E+06
  18689      1    108     71       7.050          0.1815E+06
  18690      1    108     72       6.260          0.1815E+06
  18691      1    108     73       6.190          0.1815E+06
  18692      1    108     74       6.420          0.1815E+06
  18693      1    108     75       6.460          0.1815E+06
  18694      1    108     76       7.230          0.1815E+06
  18695      1    108     77       7.480          0.1815E+06
  18696      1    108     78       6.610          0.1815E+06
  18697      1    108     79       6.500          0.1815E+06
  18698      1    108     80       7.940          0.1815E+06
  18699      1    108     81       9.880          0.1815E+06
  18700      1    108     82       10.53          0.1815E+06
  18701      1    108     83       10.70          0.1815E+06
  18702      1    108     84       10.02          0.1815E+06
  18703      1    108     85       8.930          0.1815E+06
  18704      1    108     86       6.800          0.1815E+06
  18705      1    108     87       6.420          0.1815E+06
  18706      1    108     88       9.770          0.1815E+06
  18707      1    108     89       11.70          0.1815E+06
  18708      1    108     90       13.00          0.1815E+06
  18709      1    108     91       13.60          0.1815E+06
  18710      1    108     92       14.80          0.1815E+06
  18711      1    108     93       15.70          0.1815E+06
  18712      1    108     94       15.70          0.1815E+06
  18713      1    108     95       15.10          0.1815E+06
  18714      1    108     96       15.40          0.1815E+06
  18715      1    108     97       17.70          0.1815E+06
  18716      1    108     98       18.20          0.1815E+06
  18717      1    108     99       19.70          0.1815E+06
  18718      1    108    100       22.80          0.1815E+06
  18719      1    108    101       25.70          0.1815E+06
  18720      1    108    102       27.50          0.1815E+06
  18721      1    108    103       29.10          0.1815E+06
  18722      1    108    104       30.70          0.1815E+06
  18723      1    108    105       32.10          0.1815E+06
  18724      1    108    106       33.60          0.1815E+06
  18725      1    108    107       33.80          0.1815E+06
  18726      1    108    108       32.70          0.1815E+06
  18727      1    108    109       30.90          0.1815E+06
  18728      1    108    110       30.50          0.1815E+06
  18729      1    108    111       32.00          0.1815E+06
  18730      1    108    112       32.60          0.1815E+06
  18731      1    108    113       32.00          0.1815E+06
  18732      1    108    114       33.40          0.1815E+06
  18733      1    108    115       34.20          0.1815E+06
  18734      1    108    116       33.60          0.1815E+06
  18735      1    108    117       33.30          0.1815E+06
  18736      1    108    118       33.60          0.1815E+06
  18737      1    108    119       35.00          0.1815E+06
  18738      1    108    120       35.50          0.1815E+06
  18739      1    108    121       36.40          0.1815E+06
  18740      1    108    122       37.50          0.1815E+06
  18741      1    108    123       38.40          0.1815E+06
  18742      1    108    124       39.50          0.1815E+06
  18743      1    108    125       41.60          0.1815E+06
  18744      1    108    126       44.00          0.1815E+06
  18745      1    108    127       46.70          0.1815E+06
  18746      1    108    128       49.50          0.1815E+06
  18747      1    108    129       53.20          0.1815E+06
  18748      1    108    130       57.70          0.1815E+06
  18749      1    108    131       62.40          0.1815E+06
  18750      1    108    132       67.20          0.1815E+06
  18751      1    108    133       73.00          0.1815E+06
  18752      1    108    134       77.70          0.1815E+06
  18753      1    108    135       81.00          0.1815E+06
  18754      1    108    136       82.10          0.1815E+06
  18755      1    108    137       82.80          0.1815E+06
  18756      1    108    138       83.20          0.1815E+06
  18757      1    108    139       82.90          0.1815E+06
  18758      1    108    140       81.90          0.1815E+06
  18759      1    108    141       80.60          0.1815E+06
  18760      1    108    142       79.80          0.1815E+06
  18761      1    108    143       78.20          0.1815E+06
  18762      1    108    144       72.10          0.1815E+06
  18763      1    108    145       70.80          0.1815E+06
  18764      1    108    146       69.10          0.1815E+06
  18765      1    108    147       68.30          0.1815E+06
  18766      1    108    148       68.80          0.1815E+06
  18767      1    108    149       66.60          0.1815E+06
  18768      1    108    150       63.10          0.1815E+06
  18769      1    108    151       65.10          0.1815E+06
  18770      1    108    152       62.60          0.1815E+06
  18771      1    108    153       64.70          0.1815E+06
  18772      1    108    154       66.60          0.1815E+06
  18773      1    108    155       65.00          0.1815E+06
  18774      1    108    156       61.00          0.1815E+06
  18775      1    108    157       55.30          0.1815E+06
  18776      1    108    158       51.40          0.1815E+06
  18777      1    108    159       47.20          0.1815E+06
  18778      1    108    160       43.60          0.1815E+06
  18779      1    108    161       41.00          0.1815E+06
  18780      1    108    162       39.80          0.1815E+06
  18781      1    108    163       39.90          0.1815E+06
  18782      1    108    164       39.30          0.1815E+06
  18783      1    108    165       37.30          0.1815E+06
  18784      1    108    166       35.30          0.1815E+06
  18785      1    108    167       34.60          0.1815E+06
  18786      1    108    168       36.10          0.1815E+06
  18787      1    108    169       38.80          0.1815E+06
  18788      1    108    170       39.70          0.1815E+06
  18789      1    108    171       39.50          0.1815E+06
  18790      1    108    172       39.80          0.1815E+06
  18791      1    108    173       41.60          0.1815E+06
  18792      1    108    174       43.50          0.1815E+06
  18793      1    109      1      -9.710          0.1815E+06
  18794      1    109      2      -10.21          0.1815E+06
  18795      1    109      3      -10.21          0.1815E+06
  18796      1    109      4      -10.51          0.1815E+06
  18797      1    109      5      -8.980          0.1815E+06
  18798      1    109      6      -8.610          0.1815E+06
  18799      1    109      7      -9.910          0.1815E+06
  18800      1    109      8      -10.01          0.1815E+06
  18801      1    109      9      -10.01          0.1815E+06
  18802      1    109     10      -8.120          0.1815E+06
  18803      1    109     11      -8.370          0.1815E+06
  18804      1    109     12      -9.320          0.1815E+06
  18805      1    109     13      -9.520          0.1815E+06
  18806      1    109     14      -12.12          0.1815E+06
  18807      1    109     15      -12.12          0.1815E+06
  18808      1    109     16      -11.75          0.1815E+06
  18809      1    109     17      -11.41          0.1815E+06
  18810      1    109     18      -11.12          0.1815E+06
  18811      1    109     19      -11.12          0.1815E+06
  18812      1    109     20      -10.62          0.1815E+06
  18813      1    109     21      -10.62          0.1815E+06
  18814      1    109     22      -10.07          0.1815E+06
  18815      1    109     23      -10.14          0.1815E+06
  18816      1    109     24      -9.720          0.1815E+06
  18817      1    109     25      -9.320          0.1815E+06
  18818      1    109     26      -9.320          0.1815E+06
  18819      1    109     27      -9.010          0.1815E+06
  18820      1    109     28      -8.960          0.1815E+06
  18821      1    109     29      -8.810          0.1815E+06
  18822      1    109     30      -8.110          0.1815E+06
  18823      1    109     31      -7.710          0.1815E+06
  18824      1    109     32      -7.710          0.1815E+06
  18825      1    109     33      -7.310          0.1815E+06
  18826      1    109     34      -6.710          0.1815E+06
  18827      1    109     35      -6.210          0.1815E+06
  18828      1    109     36      -6.010          0.1815E+06
  18829      1    109     37      -5.510          0.1815E+06
  18830      1    109     38      -5.510          0.1815E+06
  18831      1    109     39      -5.510          0.1815E+06
  18832      1    109     40      -5.210          0.1815E+06
  18833      1    109     41      -4.900          0.1815E+06
  18834      1    109     42      -4.400          0.1815E+06
  18835      1    109     43      -3.650          0.1815E+06
  18836      1    109     44      -3.650          0.1815E+06
  18837      1    109     45      0.5300          0.1815E+06
  18838      1    109     46       2.540          0.1815E+06
  18839      1    109     47       4.540          0.1815E+06
  18840      1    109     48       6.540          0.1815E+06
  18841      1    109     49       6.540          0.1815E+06
  18842      1    109     50       9.020          0.1815E+06
  18843      1    109     51       7.670          0.1815E+06
  18844      1    109     52       9.070          0.1815E+06
  18845      1    109     53       9.060          0.1815E+06
  18846      1    109     54       8.630          0.1815E+06
  18847      1    109     55       8.840          0.1815E+06
  18848      1    109     56       9.100          0.1815E+06
  18849      1    109     57       9.070          0.1815E+06
  18850      1    109     58       9.010          0.1815E+06
  18851      1    109     59       8.960          0.1815E+06
  18852      1    109     60       8.890          0.1815E+06
  18853      1    109     61       8.720          0.1815E+06
  18854      1    109     62       8.780          0.1815E+06
  18855      1    109     63       9.110          0.1815E+06
  18856      1    109     64       8.560          0.1815E+06
  18857      1    109     65       8.600          0.1815E+06
  18858      1    109     66       8.640          0.1815E+06
  18859      1    109     67       8.810          0.1815E+06
  18860      1    109     68       8.310          0.1815E+06
  18861      1    109     69       8.150          0.1815E+06
  18862      1    109     70       7.500          0.1815E+06
  18863      1    109     71       6.300          0.1815E+06
  18864      1    109     72       6.320          0.1815E+06
  18865      1    109     73       6.280          0.1815E+06
  18866      1    109     74       6.230          0.1815E+06
  18867      1    109     75       6.170          0.1815E+06
  18868      1    109     76       6.070          0.1815E+06
  18869      1    109     77       5.710          0.1815E+06
  18870      1    109     78       5.940          0.1815E+06
  18871      1    109     79       6.010          0.1815E+06
  18872      1    109     80       5.960          0.1815E+06
  18873      1    109     81       6.860          0.1815E+06
  18874      1    109     82       6.880          0.1815E+06
  18875      1    109     83       6.190          0.1815E+06
  18876      1    109     84       6.400          0.1815E+06
  18877      1    109     85       6.280          0.1815E+06
  18878      1    109     86       6.610          0.1815E+06
  18879      1    109     87       8.840          0.1815E+06
  18880      1    109     88       11.78          0.1815E+06
  18881      1    109     89       13.10          0.1815E+06
  18882      1    109     90       14.10          0.1815E+06
  18883      1    109     91       15.30          0.1815E+06
  18884      1    109     92       17.30          0.1815E+06
  18885      1    109     93       18.70          0.1815E+06
  18886      1    109     94       18.50          0.1815E+06
  18887      1    109     95       17.40          0.1815E+06
  18888      1    109     96       18.60          0.1815E+06
  18889      1    109     97       20.20          0.1815E+06
  18890      1    109     98       21.00          0.1815E+06
  18891      1    109     99       22.60          0.1815E+06
  18892      1    109    100       25.00          0.1815E+06
  18893      1    109    101       28.20          0.1815E+06
  18894      1    109    102       30.10          0.1815E+06
  18895      1    109    103       31.40          0.1815E+06
  18896      1    109    104       32.70          0.1815E+06
  18897      1    109    105       33.20          0.1815E+06
  18898      1    109    106       33.40          0.1815E+06
  18899      1    109    107       33.60          0.1815E+06
  18900      1    109    108       33.00          0.1815E+06
  18901      1    109    109       32.60          0.1815E+06
  18902      1    109    110       32.60          0.1815E+06
  18903      1    109    111       33.30          0.1815E+06
  18904      1    109    112       33.80          0.1815E+06
  18905      1    109    113       34.90          0.1815E+06
  18906      1    109    114       36.00          0.1815E+06
  18907      1    109    115       36.40          0.1815E+06
  18908      1    109    116       35.90          0.1815E+06
  18909      1    109    117       35.40          0.1815E+06
  18910      1    109    118       36.20          0.1815E+06
  18911      1    109    119       37.50          0.1815E+06
  18912      1    109    120       37.90          0.1815E+06
  18913      1    109    121       38.00          0.1815E+06
  18914      1    109    122       38.40          0.1815E+06
  18915      1    109    123       39.20          0.1815E+06
  18916      1    109    124       40.20          0.1815E+06
  18917      1    109    125       41.80          0.1815E+06
  18918      1    109    126       43.90          0.1815E+06
  18919      1    109    127       46.20          0.1815E+06
  18920      1    109    128       49.50          0.1815E+06
  18921      1    109    129       53.20          0.1815E+06
  18922      1    109    130       57.20          0.1815E+06
  18923      1    109    131       61.50          0.1815E+06
  18924      1    109    132       66.30          0.1815E+06
  18925      1    109    133       71.90          0.1815E+06
  18926      1    109    134       77.20          0.1815E+06
  18927      1    109    135       81.10          0.1815E+06
  18928      1    109    136       82.30          0.1815E+06
  18929      1    109    137       82.40          0.1815E+06
  18930      1    109    138       81.90          0.1815E+06
  18931      1    109    139       80.20          0.1815E+06
  18932      1    109    140       78.70          0.1815E+06
  18933      1    109    141       75.90          0.1815E+06
  18934      1    109    142       74.10          0.1815E+06
  18935      1    109    143       73.30          0.1815E+06
  18936      1    109    144       67.50          0.1815E+06
  18937      1    109    145       61.50          0.1815E+06
  18938      1    109    146       60.30          0.1815E+06
  18939      1    109    147       61.10          0.1815E+06
  18940      1    109    148       61.80          0.1815E+06
  18941      1    109    149       60.40          0.1815E+06
  18942      1    109    150       56.10          0.1815E+06
  18943      1    109    151       57.40          0.1815E+06
  18944      1    109    152       56.30          0.1815E+06
  18945      1    109    153       58.10          0.1815E+06
  18946      1    109    154       59.10          0.1815E+06
  18947      1    109    155       57.90          0.1815E+06
  18948      1    109    156       54.50          0.1815E+06
  18949      1    109    157       51.50          0.1815E+06
  18950      1    109    158       48.70          0.1815E+06
  18951      1    109    159       44.30          0.1815E+06
  18952      1    109    160       41.60          0.1815E+06
  18953      1    109    161       39.50          0.1815E+06
  18954      1    109    162       38.40          0.1815E+06
  18955      1    109    163       37.90          0.1815E+06
  18956      1    109    164       36.90          0.1815E+06
  18957      1    109    165       35.40          0.1815E+06
  18958      1    109    166       34.60          0.1815E+06
  18959      1    109    167       35.90          0.1815E+06
  18960      1    109    168       38.20          0.1815E+06
  18961      1    109    169       40.60          0.1815E+06
  18962      1    109    170       41.80          0.1815E+06
  18963      1    109    171       41.50          0.1815E+06
  18964      1    109    172       41.30          0.1815E+06
  18965      1    109    173       43.10          0.1815E+06
  18966      1    109    174       45.20          0.1815E+06
  18967      1    110      1      -10.41          0.1815E+06
  18968      1    110      2      -10.41          0.1815E+06
  18969      1    110      3      -10.41          0.1815E+06
  18970      1    110      4      -8.210          0.1815E+06
  18971      1    110      5      -8.270          0.1815E+06
  18972      1    110      6      -9.010          0.1815E+06
  18973      1    110      7      -9.580          0.1815E+06
  18974      1    110      8      -9.760          0.1815E+06
  18975      1    110      9      -9.760          0.1815E+06
  18976      1    110     10      -9.000          0.1815E+06
  18977      1    110     11      -9.160          0.1815E+06
  18978      1    110     12      -10.20          0.1815E+06
  18979      1    110     13      -11.52          0.1815E+06
  18980      1    110     14      -12.02          0.1815E+06
  18981      1    110     15      -12.02          0.1815E+06
  18982      1    110     16      -11.32          0.1815E+06
  18983      1    110     17      -11.41          0.1815E+06
  18984      1    110     18      -11.12          0.1815E+06
  18985      1    110     19      -11.12          0.1815E+06
  18986      1    110     20      -10.62          0.1815E+06
  18987      1    110     21      -10.62          0.1815E+06
  18988      1    110     22      -10.47          0.1815E+06
  18989      1    110     23      -10.22          0.1815E+06
  18990      1    110     24      -9.670          0.1815E+06
  18991      1    110     25      -9.340          0.1815E+06
  18992      1    110     26      -9.340          0.1815E+06
  18993      1    110     27      -8.870          0.1815E+06
  18994      1    110     28      -8.180          0.1815E+06
  18995      1    110     29      -8.420          0.1815E+06
  18996      1    110     30      -6.820          0.1815E+06
  18997      1    110     31      -6.570          0.1815E+06
  18998      1    110     32      -6.570          0.1815E+06
  18999      1    110     33      -6.720          0.1815E+06
  19000      1    110     34      -6.210          0.1815E+06
  19001      1    110     35      -5.660          0.1815E+06
  19002      1    110     36      -5.610          0.1815E+06
  19003      1    110     37      -5.610          0.1815E+06
  19004      1    110     38      -5.610          0.1815E+06
  19005      1    110     39      -5.110          0.1815E+06
  19006      1    110     40      -5.110          0.1815E+06
  19007      1    110     41      -4.900          0.1815E+06
  19008      1    110     42      -4.400          0.1815E+06
  19009      1    110     43      -3.650          0.1815E+06
  19010      1    110     44      -3.650          0.1815E+06
  19011      1    110     45      0.5300          0.1815E+06
  19012      1    110     46       2.530          0.1815E+06
  19013      1    110     47       3.550          0.1815E+06
  19014      1    110     48       4.550          0.1815E+06
  19015      1    110     49       4.550          0.1815E+06
  19016      1    110     50       9.600          0.1815E+06
  19017      1    110     51       8.100          0.1815E+06
  19018      1    110     52       7.860          0.1815E+06
  19019      1    110     53       9.750          0.1815E+06
  19020      1    110     54       8.350          0.1815E+06
  19021      1    110     55       8.460          0.1815E+06
  19022      1    110     56       8.810          0.1815E+06
  19023      1    110     57       9.010          0.1815E+06
  19024      1    110     58       8.930          0.1815E+06
  19025      1    110     59       8.890          0.1815E+06
  19026      1    110     60       9.860          0.1815E+06
  19027      1    110     61       8.850          0.1815E+06
  19028      1    110     62       8.680          0.1815E+06
  19029      1    110     63       8.680          0.1815E+06
  19030      1    110     64       8.890          0.1815E+06
  19031      1    110     65       8.850          0.1815E+06
  19032      1    110     66       9.260          0.1815E+06
  19033      1    110     67       8.810          0.1815E+06
  19034      1    110     68       8.530          0.1815E+06
  19035      1    110     69       8.190          0.1815E+06
  19036      1    110     70       7.760          0.1815E+06
  19037      1    110     71       6.730          0.1815E+06
  19038      1    110     72       6.960          0.1815E+06
  19039      1    110     73       6.300          0.1815E+06
  19040      1    110     74       6.320          0.1815E+06
  19041      1    110     75       6.230          0.1815E+06
  19042      1    110     76       6.230          0.1815E+06
  19043      1    110     77       6.610          0.1815E+06
  19044      1    110     78       6.110          0.1815E+06
  19045      1    110     79       6.090          0.1815E+06
  19046      1    110     80       6.070          0.1815E+06
  19047      1    110     81       6.010          0.1815E+06
  19048      1    110     82       6.030          0.1815E+06
  19049      1    110     83       6.010          0.1815E+06
  19050      1    110     84       6.610          0.1815E+06
  19051      1    110     85       6.420          0.1815E+06
  19052      1    110     86       7.800          0.1815E+06
  19053      1    110     87       9.950          0.1815E+06
  19054      1    110     88       12.80          0.1815E+06
  19055      1    110     89       14.00          0.1815E+06
  19056      1    110     90       15.50          0.1815E+06
  19057      1    110     91       17.70          0.1815E+06
  19058      1    110     92       19.80          0.1815E+06
  19059      1    110     93       20.40          0.1815E+06
  19060      1    110     94       20.70          0.1815E+06
  19061      1    110     95       20.80          0.1815E+06
  19062      1    110     96       20.90          0.1815E+06
  19063      1    110     97       21.50          0.1815E+06
  19064      1    110     98       23.60          0.1815E+06
  19065      1    110     99       25.70          0.1815E+06
  19066      1    110    100       27.50          0.1815E+06
  19067      1    110    101       30.30          0.1815E+06
  19068      1    110    102       32.10          0.1815E+06
  19069      1    110    103       33.00          0.1815E+06
  19070      1    110    104       33.30          0.1815E+06
  19071      1    110    105       33.30          0.1815E+06
  19072      1    110    106       33.30          0.1815E+06
  19073      1    110    107       33.50          0.1815E+06
  19074      1    110    108       33.30          0.1815E+06
  19075      1    110    109       33.30          0.1815E+06
  19076      1    110    110       33.60          0.1815E+06
  19077      1    110    111       34.00          0.1815E+06
  19078      1    110    112       34.50          0.1815E+06
  19079      1    110    113       35.10          0.1815E+06
  19080      1    110    114       35.60          0.1815E+06
  19081      1    110    115       36.10          0.1815E+06
  19082      1    110    116       36.40          0.1815E+06
  19083      1    110    117       36.60          0.1815E+06
  19084      1    110    118       37.20          0.1815E+06
  19085      1    110    119       37.70          0.1815E+06
  19086      1    110    120       38.40          0.1815E+06
  19087      1    110    121       38.60          0.1815E+06
  19088      1    110    122       38.90          0.1815E+06
  19089      1    110    123       39.40          0.1815E+06
  19090      1    110    124       40.50          0.1815E+06
  19091      1    110    125       42.00          0.1815E+06
  19092      1    110    126       43.70          0.1815E+06
  19093      1    110    127       45.80          0.1815E+06
  19094      1    110    128       49.10          0.1815E+06
  19095      1    110    129       52.70          0.1815E+06
  19096      1    110    130       56.90          0.1815E+06
  19097      1    110    131       61.70          0.1815E+06
  19098      1    110    132       66.20          0.1815E+06
  19099      1    110    133       71.20          0.1815E+06
  19100      1    110    134       76.40          0.1815E+06
  19101      1    110    135       80.20          0.1815E+06
  19102      1    110    136       81.40          0.1815E+06
  19103      1    110    137       81.40          0.1815E+06
  19104      1    110    138       79.70          0.1815E+06
  19105      1    110    139       76.80          0.1815E+06
  19106      1    110    140       71.90          0.1815E+06
  19107      1    110    141       68.90          0.1815E+06
  19108      1    110    142       66.90          0.1815E+06
  19109      1    110    143       65.10          0.1815E+06
  19110      1    110    144       61.00          0.1815E+06
  19111      1    110    145       55.80          0.1815E+06
  19112      1    110    146       53.20          0.1815E+06
  19113      1    110    147       55.80          0.1815E+06
  19114      1    110    148       57.30          0.1815E+06
  19115      1    110    149       55.50          0.1815E+06
  19116      1    110    150       50.40          0.1815E+06
  19117      1    110    151       49.80          0.1815E+06
  19118      1    110    152       51.00          0.1815E+06
  19119      1    110    153       52.50          0.1815E+06
  19120      1    110    154       52.70          0.1815E+06
  19121      1    110    155       51.10          0.1815E+06
  19122      1    110    156       48.60          0.1815E+06
  19123      1    110    157       46.90          0.1815E+06
  19124      1    110    158       44.40          0.1815E+06
  19125      1    110    159       41.80          0.1815E+06
  19126      1    110    160       39.70          0.1815E+06
  19127      1    110    161       38.40          0.1815E+06
  19128      1    110    162       37.40          0.1815E+06
  19129      1    110    163       36.20          0.1815E+06
  19130      1    110    164       34.90          0.1815E+06
  19131      1    110    165       34.40          0.1815E+06
  19132      1    110    166       35.10          0.1815E+06
  19133      1    110    167       38.00          0.1815E+06
  19134      1    110    168       40.70          0.1815E+06
  19135      1    110    169       42.90          0.1815E+06
  19136      1    110    170       44.00          0.1815E+06
  19137      1    110    171       44.20          0.1815E+06
  19138      1    110    172       43.50          0.1815E+06
  19139      1    110    173       44.20          0.1815E+06
  19140      1    110    174       45.50          0.1815E+06
  19141      1    111      1      -10.51          0.1815E+06
  19142      1    111      2      -9.720          0.1815E+06
  19143      1    111      3      -9.720          0.1815E+06
  19144      1    111      4      -9.470          0.1815E+06
  19145      1    111      5      -10.22          0.1815E+06
  19146      1    111      6      -10.22          0.1815E+06
  19147      1    111      7      -9.420          0.1815E+06
  19148      1    111      8      -9.720          0.1815E+06
  19149      1    111      9      -9.720          0.1815E+06
  19150      1    111     10      -10.22          0.1815E+06
  19151      1    111     11      -10.02          0.1815E+06
  19152      1    111     12      -10.20          0.1815E+06
  19153      1    111     13      -11.52          0.1815E+06
  19154      1    111     14      -12.02          0.1815E+06
  19155      1    111     15      -12.02          0.1815E+06
  19156      1    111     16      -11.32          0.1815E+06
  19157      1    111     17      -11.22          0.1815E+06
  19158      1    111     18      -11.42          0.1815E+06
  19159      1    111     19      -10.92          0.1815E+06
  19160      1    111     20      -10.62          0.1815E+06
  19161      1    111     21      -10.62          0.1815E+06
  19162      1    111     22      -10.52          0.1815E+06
  19163      1    111     23      -10.22          0.1815E+06
  19164      1    111     24      -9.520          0.1815E+06
  19165      1    111     25      -9.120          0.1815E+06
  19166      1    111     26      -9.120          0.1815E+06
  19167      1    111     27      -8.420          0.1815E+06
  19168      1    111     28      -6.720          0.1815E+06
  19169      1    111     29      -6.520          0.1815E+06
  19170      1    111     30      -6.770          0.1815E+06
  19171      1    111     31      -6.520          0.1815E+06
  19172      1    111     32      -6.520          0.1815E+06
  19173      1    111     33      -6.220          0.1815E+06
  19174      1    111     34      -6.120          0.1815E+06
  19175      1    111     35      -6.020          0.1815E+06
  19176      1    111     36      -5.730          0.1815E+06
  19177      1    111     37      -5.610          0.1815E+06
  19178      1    111     38      -5.610          0.1815E+06
  19179      1    111     39      -5.110          0.1815E+06
  19180      1    111     40      -5.110          0.1815E+06
  19181      1    111     41      -4.910          0.1815E+06
  19182      1    111     42      -4.510          0.1815E+06
  19183      1    111     43      -1.590          0.1815E+06
  19184      1    111     44      -1.590          0.1815E+06
  19185      1    111     45      0.5300          0.1815E+06
  19186      1    111     46       1.540          0.1815E+06
  19187      1    111     47       2.540          0.1815E+06
  19188      1    111     48       4.550          0.1815E+06
  19189      1    111     49       4.550          0.1815E+06
  19190      1    111     50       7.060          0.1815E+06
  19191      1    111     51       7.650          0.1815E+06
  19192      1    111     52       8.020          0.1815E+06
  19193      1    111     53       8.520          0.1815E+06
  19194      1    111     54       8.250          0.1815E+06
  19195      1    111     55       8.400          0.1815E+06
  19196      1    111     56       8.690          0.1815E+06
  19197      1    111     57       9.310          0.1815E+06
  19198      1    111     58       8.610          0.1815E+06
  19199      1    111     59       8.770          0.1815E+06
  19200      1    111     60       8.720          0.1815E+06
  19201      1    111     61       8.680          0.1815E+06
  19202      1    111     62       8.770          0.1815E+06
  19203      1    111     63       8.730          0.1815E+06
  19204      1    111     64       9.510          0.1815E+06
  19205      1    111     65       8.880          0.1815E+06
  19206      1    111     66       8.850          0.1815E+06
  19207      1    111     67       8.860          0.1815E+06
  19208      1    111     68       8.520          0.1815E+06
  19209      1    111     69       8.920          0.1815E+06
  19210      1    111     70       8.480          0.1815E+06
  19211      1    111     71       7.670          0.1815E+06
  19212      1    111     72       7.400          0.1815E+06
  19213      1    111     73       6.900          0.1815E+06
  19214      1    111     74       6.530          0.1815E+06
  19215      1    111     75       6.260          0.1815E+06
  19216      1    111     76       6.570          0.1815E+06
  19217      1    111     77       6.510          0.1815E+06
  19218      1    111     78       7.420          0.1815E+06
  19219      1    111     79       6.260          0.1815E+06
  19220      1    111     80       6.050          0.1815E+06
  19221      1    111     81       6.070          0.1815E+06
  19222      1    111     82       6.210          0.1815E+06
  19223      1    111     83       6.730          0.1815E+06
  19224      1    111     84       7.440          0.1815E+06
  19225      1    111     85       10.28          0.1815E+06
  19226      1    111     86       10.68          0.1815E+06
  19227      1    111     87       12.40          0.1815E+06
  19228      1    111     88       13.80          0.1815E+06
  19229      1    111     89       15.40          0.1815E+06
  19230      1    111     90       17.00          0.1815E+06
  19231      1    111     91       19.00          0.1815E+06
  19232      1    111     92       20.70          0.1815E+06
  19233      1    111     93       21.40          0.1815E+06
  19234      1    111     94       21.80          0.1815E+06
  19235      1    111     95       22.50          0.1815E+06
  19236      1    111     96       23.00          0.1815E+06
  19237      1    111     97       23.60          0.1815E+06
  19238      1    111     98       25.20          0.1815E+06
  19239      1    111     99       27.10          0.1815E+06
  19240      1    111    100       28.80          0.1815E+06
  19241      1    111    101       31.20          0.1815E+06
  19242      1    111    102       32.50          0.1815E+06
  19243      1    111    103       33.10          0.1815E+06
  19244      1    111    104       33.10          0.1815E+06
  19245      1    111    105       33.20          0.1815E+06
  19246      1    111    106       33.40          0.1815E+06
  19247      1    111    107       33.50          0.1815E+06
  19248      1    111    108       33.50          0.1815E+06
  19249      1    111    109       33.50          0.1815E+06
  19250      1    111    110       33.80          0.1815E+06
  19251      1    111    111       34.30          0.1815E+06
  19252      1    111    112       34.70          0.1815E+06
  19253      1    111    113       34.80          0.1815E+06
  19254      1    111    114       34.70          0.1815E+06
  19255      1    111    115       34.80          0.1815E+06
  19256      1    111    116       35.50          0.1815E+06
  19257      1    111    117       36.30          0.1815E+06
  19258      1    111    118       36.80          0.1815E+06
  19259      1    111    119       37.10          0.1815E+06
  19260      1    111    120       37.90          0.1815E+06
  19261      1    111    121       38.30          0.1815E+06
  19262      1    111    122       38.50          0.1815E+06
  19263      1    111    123       39.00          0.1815E+06
  19264      1    111    124       40.30          0.1815E+06
  19265      1    111    125       41.60          0.1815E+06
  19266      1    111    126       43.10          0.1815E+06
  19267      1    111    127       45.30          0.1815E+06
  19268      1    111    128       48.30          0.1815E+06
  19269      1    111    129       51.60          0.1815E+06
  19270      1    111    130       56.50          0.1815E+06
  19271      1    111    131       62.00          0.1815E+06
  19272      1    111    132       66.90          0.1815E+06
  19273      1    111    133       71.60          0.1815E+06
  19274      1    111    134       75.80          0.1815E+06
  19275      1    111    135       78.20          0.1815E+06
  19276      1    111    136       79.50          0.1815E+06
  19277      1    111    137       78.40          0.1815E+06
  19278      1    111    138       75.70          0.1815E+06
  19279      1    111    139       70.50          0.1815E+06
  19280      1    111    140       64.50          0.1815E+06
  19281      1    111    141       60.60          0.1815E+06
  19282      1    111    142       59.90          0.1815E+06
  19283      1    111    143       59.00          0.1815E+06
  19284      1    111    144       55.00          0.1815E+06
  19285      1    111    145       49.60          0.1815E+06
  19286      1    111    146       48.40          0.1815E+06
  19287      1    111    147       51.20          0.1815E+06
  19288      1    111    148       52.20          0.1815E+06
  19289      1    111    149       50.50          0.1815E+06
  19290      1    111    150       47.10          0.1815E+06
  19291      1    111    151       44.70          0.1815E+06
  19292      1    111    152       47.30          0.1815E+06
  19293      1    111    153       47.90          0.1815E+06
  19294      1    111    154       46.70          0.1815E+06
  19295      1    111    155       45.20          0.1815E+06
  19296      1    111    156       43.70          0.1815E+06
  19297      1    111    157       42.00          0.1815E+06
  19298      1    111    158       40.00          0.1815E+06
  19299      1    111    159       38.90          0.1815E+06
  19300      1    111    160       38.00          0.1815E+06
  19301      1    111    161       37.20          0.1815E+06
  19302      1    111    162       36.30          0.1815E+06
  19303      1    111    163       35.00          0.1815E+06
  19304      1    111    164       34.60          0.1815E+06
  19305      1    111    165       35.10          0.1815E+06
  19306      1    111    166       37.00          0.1815E+06
  19307      1    111    167       40.50          0.1815E+06
  19308      1    111    168       43.10          0.1815E+06
  19309      1    111    169       44.90          0.1815E+06
  19310      1    111    170       46.10          0.1815E+06
  19311      1    111    171       46.40          0.1815E+06
  19312      1    111    172       45.20          0.1815E+06
  19313      1    111    173       45.10          0.1815E+06
  19314      1    111    174       46.80          0.1815E+06
  19315      1    112      1      -10.51          0.1815E+06
  19316      1    112      2      -9.720          0.1815E+06
  19317      1    112      3      -9.720          0.1815E+06
  19318      1    112      4      -9.470          0.1815E+06
  19319      1    112      5      -10.22          0.1815E+06
  19320      1    112      6      -10.22          0.1815E+06
  19321      1    112      7      -9.420          0.1815E+06
  19322      1    112      8      -9.720          0.1815E+06
  19323      1    112      9      -9.720          0.1815E+06
  19324      1    112     10      -10.22          0.1815E+06
  19325      1    112     11      -10.02          0.1815E+06
  19326      1    112     12      -10.20          0.1815E+06
  19327      1    112     13      -11.52          0.1815E+06
  19328      1    112     14      -12.02          0.1815E+06
  19329      1    112     15      -12.02          0.1815E+06
  19330      1    112     16      -11.32          0.1815E+06
  19331      1    112     17      -11.22          0.1815E+06
  19332      1    112     18      -11.42          0.1815E+06
  19333      1    112     19      -10.92          0.1815E+06
  19334      1    112     20      -10.62          0.1815E+06
  19335      1    112     21      -10.62          0.1815E+06
  19336      1    112     22      -10.52          0.1815E+06
  19337      1    112     23      -10.22          0.1815E+06
  19338      1    112     24      -9.520          0.1815E+06
  19339      1    112     25      -9.120          0.1815E+06
  19340      1    112     26      -9.120          0.1815E+06
  19341      1    112     27      -8.420          0.1815E+06
  19342      1    112     28      -6.720          0.1815E+06
  19343      1    112     29      -6.520          0.1815E+06
  19344      1    112     30      -6.770          0.1815E+06
  19345      1    112     31      -6.520          0.1815E+06
  19346      1    112     32      -6.520          0.1815E+06
  19347      1    112     33      -6.220          0.1815E+06
  19348      1    112     34      -6.120          0.1815E+06
  19349      1    112     35      -6.020          0.1815E+06
  19350      1    112     36      -5.730          0.1815E+06
  19351      1    112     37      -5.610          0.1815E+06
  19352      1    112     38      -5.610          0.1815E+06
  19353      1    112     39      -5.110          0.1815E+06
  19354      1    112     40      -5.110          0.1815E+06
  19355      1    112     41      -4.910          0.1815E+06
  19356      1    112     42      -4.510          0.1815E+06
  19357      1    112     43      -1.590          0.1815E+06
  19358      1    112     44      -1.590          0.1815E+06
  19359      1    112     45      0.5300          0.1815E+06
  19360      1    112     46       1.540          0.1815E+06
  19361      1    112     47       2.540          0.1815E+06
  19362      1    112     48       4.550          0.1815E+06
  19363      1    112     49       4.550          0.1815E+06
  19364      1    112     50       7.060          0.1815E+06
  19365      1    112     51       7.670          0.1815E+06
  19366      1    112     52       7.510          0.1815E+06
  19367      1    112     53       9.360          0.1815E+06
  19368      1    112     54       8.610          0.1815E+06
  19369      1    112     55       8.130          0.1815E+06
  19370      1    112     56       8.520          0.1815E+06
  19371      1    112     57       8.670          0.1815E+06
  19372      1    112     58       8.720          0.1815E+06
  19373      1    112     59       8.800          0.1815E+06
  19374      1    112     60       8.770          0.1815E+06
  19375      1    112     61       8.680          0.1815E+06
  19376      1    112     62       8.770          0.1815E+06
  19377      1    112     63       8.770          0.1815E+06
  19378      1    112     64       8.850          0.1815E+06
  19379      1    112     65       9.020          0.1815E+06
  19380      1    112     66       9.070          0.1815E+06
  19381      1    112     67       9.920          0.1815E+06
  19382      1    112     68       8.810          0.1815E+06
  19383      1    112     69       8.720          0.1815E+06
  19384      1    112     70       8.770          0.1815E+06
  19385      1    112     71       8.060          0.1815E+06
  19386      1    112     72       7.730          0.1815E+06
  19387      1    112     73       7.210          0.1815E+06
  19388      1    112     74       7.070          0.1815E+06
  19389      1    112     75       7.440          0.1815E+06
  19390      1    112     76       7.210          0.1815E+06
  19391      1    112     77       8.720          0.1815E+06
  19392      1    112     78       9.930          0.1815E+06
  19393      1    112     79       9.750          0.1815E+06
  19394      1    112     80       7.840          0.1815E+06
  19395      1    112     81       8.940          0.1815E+06
  19396      1    112     82       9.880          0.1815E+06
  19397      1    112     83       10.86          0.1815E+06
  19398      1    112     84       10.47          0.1815E+06
  19399      1    112     85       11.80          0.1815E+06
  19400      1    112     86       12.40          0.1815E+06
  19401      1    112     87       13.40          0.1815E+06
  19402      1    112     88       14.70          0.1815E+06
  19403      1    112     89       16.30          0.1815E+06
  19404      1    112     90       17.70          0.1815E+06
  19405      1    112     91       18.90          0.1815E+06
  19406      1    112     92       20.90          0.1815E+06
  19407      1    112     93       21.90          0.1815E+06
  19408      1    112     94       22.50          0.1815E+06
  19409      1    112     95       23.40          0.1815E+06
  19410      1    112     96       24.50          0.1815E+06
  19411      1    112     97       25.20          0.1815E+06
  19412      1    112     98       25.90          0.1815E+06
  19413      1    112     99       27.40          0.1815E+06
  19414      1    112    100       28.80          0.1815E+06
  19415      1    112    101       30.70          0.1815E+06
  19416      1    112    102       32.30          0.1815E+06
  19417      1    112    103       33.10          0.1815E+06
  19418      1    112    104       33.10          0.1815E+06
  19419      1    112    105       33.10          0.1815E+06
  19420      1    112    106       33.30          0.1815E+06
  19421      1    112    107       33.50          0.1815E+06
  19422      1    112    108       33.50          0.1815E+06
  19423      1    112    109       33.60          0.1815E+06
  19424      1    112    110       33.70          0.1815E+06
  19425      1    112    111       34.00          0.1815E+06
  19426      1    112    112       34.30          0.1815E+06
  19427      1    112    113       34.40          0.1815E+06
  19428      1    112    114       34.30          0.1815E+06
  19429      1    112    115       34.40          0.1815E+06
  19430      1    112    116       34.80          0.1815E+06
  19431      1    112    117       35.30          0.1815E+06
  19432      1    112    118       35.70          0.1815E+06
  19433      1    112    119       36.40          0.1815E+06
  19434      1    112    120       37.00          0.1815E+06
  19435      1    112    121       37.20          0.1815E+06
  19436      1    112    122       37.40          0.1815E+06
  19437      1    112    123       38.30          0.1815E+06
  19438      1    112    124       39.40          0.1815E+06
  19439      1    112    125       40.30          0.1815E+06
  19440      1    112    126       41.90          0.1815E+06
  19441      1    112    127       44.40          0.1815E+06
  19442      1    112    128       47.20          0.1815E+06
  19443      1    112    129       50.10          0.1815E+06
  19444      1    112    130       55.30          0.1815E+06
  19445      1    112    131       62.20          0.1815E+06
  19446      1    112    132       68.50          0.1815E+06
  19447      1    112    133       72.70          0.1815E+06
  19448      1    112    134       74.70          0.1815E+06
  19449      1    112    135       74.80          0.1815E+06
  19450      1    112    136       74.90          0.1815E+06
  19451      1    112    137       73.20          0.1815E+06
  19452      1    112    138       69.40          0.1815E+06
  19453      1    112    139       62.60          0.1815E+06
  19454      1    112    140       57.90          0.1815E+06
  19455      1    112    141       55.20          0.1815E+06
  19456      1    112    142       53.70          0.1815E+06
  19457      1    112    143       52.90          0.1815E+06
  19458      1    112    144       49.20          0.1815E+06
  19459      1    112    145       45.80          0.1815E+06
  19460      1    112    146       44.80          0.1815E+06
  19461      1    112    147       47.20          0.1815E+06
  19462      1    112    148       47.80          0.1815E+06
  19463      1    112    149       46.30          0.1815E+06
  19464      1    112    150       44.00          0.1815E+06
  19465      1    112    151       42.50          0.1815E+06
  19466      1    112    152       43.80          0.1815E+06
  19467      1    112    153       44.10          0.1815E+06
  19468      1    112    154       42.80          0.1815E+06
  19469      1    112    155       41.40          0.1815E+06
  19470      1    112    156       40.00          0.1815E+06
  19471      1    112    157       38.50          0.1815E+06
  19472      1    112    158       37.60          0.1815E+06
  19473      1    112    159       37.20          0.1815E+06
  19474      1    112    160       36.40          0.1815E+06
  19475      1    112    161       35.50          0.1815E+06
  19476      1    112    162       35.00          0.1815E+06
  19477      1    112    163       34.40          0.1815E+06
  19478      1    112    164       35.10          0.1815E+06
  19479      1    112    165       37.10          0.1815E+06
  19480      1    112    166       39.60          0.1815E+06
  19481      1    112    167       42.40          0.1815E+06
  19482      1    112    168       44.80          0.1815E+06
  19483      1    112    169       46.70          0.1815E+06
  19484      1    112    170       48.00          0.1815E+06
  19485      1    112    171       48.50          0.1815E+06
  19486      1    112    172       48.00          0.1815E+06
  19487      1    112    173       47.90          0.1815E+06
  19488      1    112    174       48.60          0.1815E+06
  19489      1    113      1      -10.22          0.1815E+06
  19490      1    113      2      -9.620          0.1815E+06
  19491      1    113      3      -9.620          0.1815E+06
  19492      1    113      4      -10.12          0.1815E+06
  19493      1    113      5      -10.02          0.1815E+06
  19494      1    113      6      -8.630          0.1815E+06
  19495      1    113      7      -9.520          0.1815E+06
  19496      1    113      8      -9.570          0.1815E+06
  19497      1    113      9      -9.570          0.1815E+06
  19498      1    113     10      -10.22          0.1815E+06
  19499      1    113     11      -10.02          0.1815E+06
  19500      1    113     12      -10.82          0.1815E+06
  19501      1    113     13      -12.92          0.1815E+06
  19502      1    113     14      -12.52          0.1815E+06
  19503      1    113     15      -12.52          0.1815E+06
  19504      1    113     16      -11.92          0.1815E+06
  19505      1    113     17      -11.83          0.1815E+06
  19506      1    113     18      -11.09          0.1815E+06
  19507      1    113     19      -10.49          0.1815E+06
  19508      1    113     20      -10.28          0.1815E+06
  19509      1    113     21      -10.28          0.1815E+06
  19510      1    113     22      -10.03          0.1815E+06
  19511      1    113     23      -9.930          0.1815E+06
  19512      1    113     24      -9.330          0.1815E+06
  19513      1    113     25      -9.130          0.1815E+06
  19514      1    113     26      -9.130          0.1815E+06
  19515      1    113     27      -8.730          0.1815E+06
  19516      1    113     28      -7.420          0.1815E+06
  19517      1    113     29      -6.150          0.1815E+06
  19518      1    113     30      -6.330          0.1815E+06
  19519      1    113     31      -5.750          0.1815E+06
  19520      1    113     32      -5.750          0.1815E+06
  19521      1    113     33      -6.220          0.1815E+06
  19522      1    113     34      -6.120          0.1815E+06
  19523      1    113     35      -6.020          0.1815E+06
  19524      1    113     36      -5.730          0.1815E+06
  19525      1    113     37      -5.720          0.1815E+06
  19526      1    113     38      -5.720          0.1815E+06
  19527      1    113     39      -5.310          0.1815E+06
  19528      1    113     40      -5.110          0.1815E+06
  19529      1    113     41      -5.180          0.1815E+06
  19530      1    113     42      -4.980          0.1815E+06
  19531      1    113     43      -4.410          0.1815E+06
  19532      1    113     44      -4.410          0.1815E+06
  19533      1    113     45      0.5300          0.1815E+06
  19534      1    113     46      0.5400          0.1815E+06
  19535      1    113     47       1.540          0.1815E+06
  19536      1    113     48       3.550          0.1815E+06
  19537      1    113     49       3.550          0.1815E+06
  19538      1    113     50       5.060          0.1815E+06
  19539      1    113     51       10.97          0.1815E+06
  19540      1    113     52       7.250          0.1815E+06
  19541      1    113     53       7.440          0.1815E+06
  19542      1    113     54       7.760          0.1815E+06
  19543      1    113     55       7.980          0.1815E+06
  19544      1    113     56       8.350          0.1815E+06
  19545      1    113     57       8.560          0.1815E+06
  19546      1    113     58       8.850          0.1815E+06
  19547      1    113     59       8.820          0.1815E+06
  19548      1    113     60       9.140          0.1815E+06
  19549      1    113     61       8.820          0.1815E+06
  19550      1    113     62       8.800          0.1815E+06
  19551      1    113     63       8.820          0.1815E+06
  19552      1    113     64       8.880          0.1815E+06
  19553      1    113     65       8.980          0.1815E+06
  19554      1    113     66       9.020          0.1815E+06
  19555      1    113     67       8.810          0.1815E+06
  19556      1    113     68       8.770          0.1815E+06
  19557      1    113     69       8.770          0.1815E+06
  19558      1    113     70       9.020          0.1815E+06
  19559      1    113     71       8.750          0.1815E+06
  19560      1    113     72       8.390          0.1815E+06
  19561      1    113     73       7.860          0.1815E+06
  19562      1    113     74       7.340          0.1815E+06
  19563      1    113     75       7.260          0.1815E+06
  19564      1    113     76       6.940          0.1815E+06
  19565      1    113     77       10.14          0.1815E+06
  19566      1    113     78       11.06          0.1815E+06
  19567      1    113     79       9.600          0.1815E+06
  19568      1    113     80       10.00          0.1815E+06
  19569      1    113     81       11.73          0.1815E+06
  19570      1    113     82       12.60          0.1815E+06
  19571      1    113     83       12.70          0.1815E+06
  19572      1    113     84       12.60          0.1815E+06
  19573      1    113     85       12.80          0.1815E+06
  19574      1    113     86       13.30          0.1815E+06
  19575      1    113     87       14.60          0.1815E+06
  19576      1    113     88       15.80          0.1815E+06
  19577      1    113     89       17.00          0.1815E+06
  19578      1    113     90       18.10          0.1815E+06
  19579      1    113     91       18.70          0.1815E+06
  19580      1    113     92       20.00          0.1815E+06
  19581      1    113     93       21.40          0.1815E+06
  19582      1    113     94       22.40          0.1815E+06
  19583      1    113     95       23.70          0.1815E+06
  19584      1    113     96       24.90          0.1815E+06
  19585      1    113     97       25.20          0.1815E+06
  19586      1    113     98       25.80          0.1815E+06
  19587      1    113     99       27.40          0.1815E+06
  19588      1    113    100       28.60          0.1815E+06
  19589      1    113    101       30.00          0.1815E+06
  19590      1    113    102       31.80          0.1815E+06
  19591      1    113    103       33.00          0.1815E+06
  19592      1    113    104       33.10          0.1815E+06
  19593      1    113    105       33.10          0.1815E+06
  19594      1    113    106       33.20          0.1815E+06
  19595      1    113    107       33.30          0.1815E+06
  19596      1    113    108       33.50          0.1815E+06
  19597      1    113    109       33.60          0.1815E+06
  19598      1    113    110       33.60          0.1815E+06
  19599      1    113    111       33.70          0.1815E+06
  19600      1    113    112       33.80          0.1815E+06
  19601      1    113    113       33.90          0.1815E+06
  19602      1    113    114       34.00          0.1815E+06
  19603      1    113    115       34.20          0.1815E+06
  19604      1    113    116       34.30          0.1815E+06
  19605      1    113    117       34.50          0.1815E+06
  19606      1    113    118       34.90          0.1815E+06
  19607      1    113    119       35.60          0.1815E+06
  19608      1    113    120       36.20          0.1815E+06
  19609      1    113    121       36.40          0.1815E+06
  19610      1    113    122       36.70          0.1815E+06
  19611      1    113    123       37.40          0.1815E+06
  19612      1    113    124       38.10          0.1815E+06
  19613      1    113    125       38.80          0.1815E+06
  19614      1    113    126       40.10          0.1815E+06
  19615      1    113    127       42.80          0.1815E+06
  19616      1    113    128       45.80          0.1815E+06
  19617      1    113    129       48.40          0.1815E+06
  19618      1    113    130       53.00          0.1815E+06
  19619      1    113    131       60.50          0.1815E+06
  19620      1    113    132       68.70          0.1815E+06
  19621      1    113    133       71.90          0.1815E+06
  19622      1    113    134       71.10          0.1815E+06
  19623      1    113    135       69.80          0.1815E+06
  19624      1    113    136       69.40          0.1815E+06
  19625      1    113    137       67.10          0.1815E+06
  19626      1    113    138       63.00          0.1815E+06
  19627      1    113    139       57.90          0.1815E+06
  19628      1    113    140       53.80          0.1815E+06
  19629      1    113    141       51.00          0.1815E+06
  19630      1    113    142       48.80          0.1815E+06
  19631      1    113    143       48.20          0.1815E+06
  19632      1    113    144       45.50          0.1815E+06
  19633      1    113    145       43.50          0.1815E+06
  19634      1    113    146       43.30          0.1815E+06
  19635      1    113    147       44.30          0.1815E+06
  19636      1    113    148       44.60          0.1815E+06
  19637      1    113    149       43.40          0.1815E+06
  19638      1    113    150       41.30          0.1815E+06
  19639      1    113    151       39.80          0.1815E+06
  19640      1    113    152       41.00          0.1815E+06
  19641      1    113    153       41.20          0.1815E+06
  19642      1    113    154       40.10          0.1815E+06
  19643      1    113    155       38.80          0.1815E+06
  19644      1    113    156       37.50          0.1815E+06
  19645      1    113    157       36.20          0.1815E+06
  19646      1    113    158       35.40          0.1815E+06
  19647      1    113    159       35.40          0.1815E+06
  19648      1    113    160       35.10          0.1815E+06
  19649      1    113    161       34.30          0.1815E+06
  19650      1    113    162       33.70          0.1815E+06
  19651      1    113    163       34.10          0.1815E+06
  19652      1    113    164       36.30          0.1815E+06
  19653      1    113    165       39.80          0.1815E+06
  19654      1    113    166       41.90          0.1815E+06
  19655      1    113    167       44.10          0.1815E+06
  19656      1    113    168       46.30          0.1815E+06
  19657      1    113    169       48.20          0.1815E+06
  19658      1    113    170       49.60          0.1815E+06
  19659      1    113    171       50.60          0.1815E+06
  19660      1    113    172       50.90          0.1815E+06
  19661      1    113    173       51.00          0.1815E+06
  19662      1    113    174       51.00          0.1815E+06
  19663      1    114      1      -10.42          0.1815E+06
  19664      1    114      2      -10.72          0.1815E+06
  19665      1    114      3      -10.72          0.1815E+06
  19666      1    114      4      -10.12          0.1815E+06
  19667      1    114      5      -10.02          0.1815E+06
  19668      1    114      6      -8.630          0.1815E+06
  19669      1    114      7      -9.520          0.1815E+06
  19670      1    114      8      -10.23          0.1815E+06
  19671      1    114      9      -10.23          0.1815E+06
  19672      1    114     10      -10.65          0.1815E+06
  19673      1    114     11      -10.95          0.1815E+06
  19674      1    114     12      -11.65          0.1815E+06
  19675      1    114     13      -12.17          0.1815E+06
  19676      1    114     14      -10.98          0.1815E+06
  19677      1    114     15      -10.98          0.1815E+06
  19678      1    114     16      -10.93          0.1815E+06
  19679      1    114     17      -11.33          0.1815E+06
  19680      1    114     18      -11.13          0.1815E+06
  19681      1    114     19      -10.33          0.1815E+06
  19682      1    114     20      -10.67          0.1815E+06
  19683      1    114     21      -10.67          0.1815E+06
  19684      1    114     22      -10.66          0.1815E+06
  19685      1    114     23      -10.30          0.1815E+06
  19686      1    114     24      -9.850          0.1815E+06
  19687      1    114     25      -9.450          0.1815E+06
  19688      1    114     26      -9.450          0.1815E+06
  19689      1    114     27      -8.930          0.1815E+06
  19690      1    114     28      -6.400          0.1815E+06
  19691      1    114     29      -6.150          0.1815E+06
  19692      1    114     30      -6.330          0.1815E+06
  19693      1    114     31      -5.750          0.1815E+06
  19694      1    114     32      -5.750          0.1815E+06
  19695      1    114     33      -5.920          0.1815E+06
  19696      1    114     34      -6.120          0.1815E+06
  19697      1    114     35      -6.220          0.1815E+06
  19698      1    114     36      -5.720          0.1815E+06
  19699      1    114     37      -5.720          0.1815E+06
  19700      1    114     38      -5.720          0.1815E+06
  19701      1    114     39      -5.520          0.1815E+06
  19702      1    114     40      -5.520          0.1815E+06
  19703      1    114     41      -5.520          0.1815E+06
  19704      1    114     42      -5.310          0.1815E+06
  19705      1    114     43      -3.910          0.1815E+06
  19706      1    114     44      -3.910          0.1815E+06
  19707      1    114     45     -0.7700          0.1815E+06
  19708      1    114     46      0.5400          0.1815E+06
  19709      1    114     47      0.5400          0.1815E+06
  19710      1    114     48       3.550          0.1815E+06
  19711      1    114     49       3.550          0.1815E+06
  19712      1    114     50       4.560          0.1815E+06
  19713      1    114     51       6.570          0.1815E+06
  19714      1    114     52       7.230          0.1815E+06
  19715      1    114     53       6.980          0.1815E+06
  19716      1    114     54       7.590          0.1815E+06
  19717      1    114     55       8.010          0.1815E+06
  19718      1    114     56       8.060          0.1815E+06
  19719      1    114     57       8.280          0.1815E+06
  19720      1    114     58       8.840          0.1815E+06
  19721      1    114     59       8.710          0.1815E+06
  19722      1    114     60       8.890          0.1815E+06
  19723      1    114     61       8.710          0.1815E+06
  19724      1    114     62       8.730          0.1815E+06
  19725      1    114     63       8.800          0.1815E+06
  19726      1    114     64       8.890          0.1815E+06
  19727      1    114     65       9.520          0.1815E+06
  19728      1    114     66       9.020          0.1815E+06
  19729      1    114     67       8.930          0.1815E+06
  19730      1    114     68       9.820          0.1815E+06
  19731      1    114     69       8.820          0.1815E+06
  19732      1    114     70       9.190          0.1815E+06
  19733      1    114     71       8.760          0.1815E+06
  19734      1    114     72       8.760          0.1815E+06
  19735      1    114     73       8.680          0.1815E+06
  19736      1    114     74       7.690          0.1815E+06
  19737      1    114     75       7.110          0.1815E+06
  19738      1    114     76       6.250          0.1815E+06
  19739      1    114     77       10.35          0.1815E+06
  19740      1    114     78       11.55          0.1815E+06
  19741      1    114     79       10.02          0.1815E+06
  19742      1    114     80       11.40          0.1815E+06
  19743      1    114     81       12.10          0.1815E+06
  19744      1    114     82       12.70          0.1815E+06
  19745      1    114     83       13.00          0.1815E+06
  19746      1    114     84       13.20          0.1815E+06
  19747      1    114     85       13.40          0.1815E+06
  19748      1    114     86       14.20          0.1815E+06
  19749      1    114     87       15.40          0.1815E+06
  19750      1    114     88       16.50          0.1815E+06
  19751      1    114     89       17.30          0.1815E+06
  19752      1    114     90       18.00          0.1815E+06
  19753      1    114     91       18.40          0.1815E+06
  19754      1    114     92       19.00          0.1815E+06
  19755      1    114     93       20.30          0.1815E+06
  19756      1    114     94       21.70          0.1815E+06
  19757      1    114     95       23.20          0.1815E+06
  19758      1    114     96       24.60          0.1815E+06
  19759      1    114     97       24.90          0.1815E+06
  19760      1    114     98       25.70          0.1815E+06
  19761      1    114     99       26.70          0.1815E+06
  19762      1    114    100       27.80          0.1815E+06
  19763      1    114    101       29.30          0.1815E+06
  19764      1    114    102       31.00          0.1815E+06
  19765      1    114    103       32.30          0.1815E+06
  19766      1    114    104       32.90          0.1815E+06
  19767      1    114    105       33.30          0.1815E+06
  19768      1    114    106       33.30          0.1815E+06
  19769      1    114    107       33.30          0.1815E+06
  19770      1    114    108       33.50          0.1815E+06
  19771      1    114    109       33.40          0.1815E+06
  19772      1    114    110       33.10          0.1815E+06
  19773      1    114    111       33.20          0.1815E+06
  19774      1    114    112       33.40          0.1815E+06
  19775      1    114    113       33.60          0.1815E+06
  19776      1    114    114       33.70          0.1815E+06
  19777      1    114    115       33.70          0.1815E+06
  19778      1    114    116       33.90          0.1815E+06
  19779      1    114    117       34.20          0.1815E+06
  19780      1    114    118       34.40          0.1815E+06
  19781      1    114    119       34.80          0.1815E+06
  19782      1    114    120       35.30          0.1815E+06
  19783      1    114    121       35.70          0.1815E+06
  19784      1    114    122       36.20          0.1815E+06
  19785      1    114    123       36.70          0.1815E+06
  19786      1    114    124       37.10          0.1815E+06
  19787      1    114    125       37.80          0.1815E+06
  19788      1    114    126       38.90          0.1815E+06
  19789      1    114    127       40.90          0.1815E+06
  19790      1    114    128       43.80          0.1815E+06
  19791      1    114    129       46.60          0.1815E+06
  19792      1    114    130       50.70          0.1815E+06
  19793      1    114    131       55.80          0.1815E+06
  19794      1    114    132       62.60          0.1815E+06
  19795      1    114    133       66.00          0.1815E+06
  19796      1    114    134       64.40          0.1815E+06
  19797      1    114    135       63.20          0.1815E+06
  19798      1    114    136       62.20          0.1815E+06
  19799      1    114    137       60.80          0.1815E+06
  19800      1    114    138       58.00          0.1815E+06
  19801      1    114    139       53.30          0.1815E+06
  19802      1    114    140       49.60          0.1815E+06
  19803      1    114    141       47.30          0.1815E+06
  19804      1    114    142       45.20          0.1815E+06
  19805      1    114    143       44.00          0.1815E+06
  19806      1    114    144       42.20          0.1815E+06
  19807      1    114    145       41.40          0.1815E+06
  19808      1    114    146       41.80          0.1815E+06
  19809      1    114    147       42.50          0.1815E+06
  19810      1    114    148       42.20          0.1815E+06
  19811      1    114    149       40.80          0.1815E+06
  19812      1    114    150       39.00          0.1815E+06
  19813      1    114    151       37.50          0.1815E+06
  19814      1    114    152       38.10          0.1815E+06
  19815      1    114    153       38.80          0.1815E+06
  19816      1    114    154       38.10          0.1815E+06
  19817      1    114    155       36.80          0.1815E+06
  19818      1    114    156       34.70          0.1815E+06
  19819      1    114    157       33.20          0.1815E+06
  19820      1    114    158       33.10          0.1815E+06
  19821      1    114    159       33.30          0.1815E+06
  19822      1    114    160       33.60          0.1815E+06
  19823      1    114    161       34.30          0.1815E+06
  19824      1    114    162       35.20          0.1815E+06
  19825      1    114    163       35.50          0.1815E+06
  19826      1    114    164       37.80          0.1815E+06
  19827      1    114    165       41.30          0.1815E+06
  19828      1    114    166       43.90          0.1815E+06
  19829      1    114    167       45.80          0.1815E+06
  19830      1    114    168       47.90          0.1815E+06
  19831      1    114    169       49.70          0.1815E+06
  19832      1    114    170       51.10          0.1815E+06
  19833      1    114    171       52.10          0.1815E+06
  19834      1    114    172       52.50          0.1815E+06
  19835      1    114    173       53.70          0.1815E+06
  19836      1    114    174       56.50          0.1815E+06
  19837      1    115      1      -10.42          0.1815E+06
  19838      1    115      2      -10.72          0.1815E+06
  19839      1    115      3      -10.72          0.1815E+06
  19840      1    115      4      -10.42          0.1815E+06
  19841      1    115      5      -9.930          0.1815E+06
  19842      1    115      6      -9.720          0.1815E+06
  19843      1    115      7      -9.030          0.1815E+06
  19844      1    115      8      -10.43          0.1815E+06
  19845      1    115      9      -10.43          0.1815E+06
  19846      1    115     10      -10.83          0.1815E+06
  19847      1    115     11      -11.38          0.1815E+06
  19848      1    115     12      -12.23          0.1815E+06
  19849      1    115     13      -12.53          0.1815E+06
  19850      1    115     14      -12.33          0.1815E+06
  19851      1    115     15      -12.33          0.1815E+06
  19852      1    115     16      -11.88          0.1815E+06
  19853      1    115     17      -11.70          0.1815E+06
  19854      1    115     18      -11.55          0.1815E+06
  19855      1    115     19      -11.50          0.1815E+06
  19856      1    115     20      -11.83          0.1815E+06
  19857      1    115     21      -11.83          0.1815E+06
  19858      1    115     22      -11.63          0.1815E+06
  19859      1    115     23      -10.30          0.1815E+06
  19860      1    115     24      -9.850          0.1815E+06
  19861      1    115     25      -9.450          0.1815E+06
  19862      1    115     26      -9.450          0.1815E+06
  19863      1    115     27      -8.930          0.1815E+06
  19864      1    115     28      -6.530          0.1815E+06
  19865      1    115     29      -6.130          0.1815E+06
  19866      1    115     30      -6.330          0.1815E+06
  19867      1    115     31      -5.530          0.1815E+06
  19868      1    115     32      -5.530          0.1815E+06
  19869      1    115     33      -5.740          0.1815E+06
  19870      1    115     34      -5.840          0.1815E+06
  19871      1    115     35      -5.970          0.1815E+06
  19872      1    115     36      -5.820          0.1815E+06
  19873      1    115     37      -5.720          0.1815E+06
  19874      1    115     38      -5.720          0.1815E+06
  19875      1    115     39      -5.150          0.1815E+06
  19876      1    115     40      -4.700          0.1815E+06
  19877      1    115     41      -4.740          0.1815E+06
  19878      1    115     42      -4.620          0.1815E+06
  19879      1    115     43      -3.920          0.1815E+06
  19880      1    115     44      -3.920          0.1815E+06
  19881      1    115     45      -1.900          0.1815E+06
  19882      1    115     46      0.5300          0.1815E+06
  19883      1    115     47       1.550          0.1815E+06
  19884      1    115     48       3.550          0.1815E+06
  19885      1    115     49       3.550          0.1815E+06
  19886      1    115     50       4.560          0.1815E+06
  19887      1    115     51       6.570          0.1815E+06
  19888      1    115     52       8.060          0.1815E+06
  19889      1    115     53       7.920          0.1815E+06
  19890      1    115     54       7.750          0.1815E+06
  19891      1    115     55       7.760          0.1815E+06
  19892      1    115     56       8.670          0.1815E+06
  19893      1    115     57       8.220          0.1815E+06
  19894      1    115     58       8.640          0.1815E+06
  19895      1    115     59       8.770          0.1815E+06
  19896      1    115     60       8.930          0.1815E+06
  19897      1    115     61       9.190          0.1815E+06
  19898      1    115     62       8.850          0.1815E+06
  19899      1    115     63       8.930          0.1815E+06
  19900      1    115     64       9.000          0.1815E+06
  19901      1    115     65       9.280          0.1815E+06
  19902      1    115     66       9.130          0.1815E+06
  19903      1    115     67       8.930          0.1815E+06
  19904      1    115     68       9.050          0.1815E+06
  19905      1    115     69       9.180          0.1815E+06
  19906      1    115     70       9.030          0.1815E+06
  19907      1    115     71       8.850          0.1815E+06
  19908      1    115     72       8.590          0.1815E+06
  19909      1    115     73       8.520          0.1815E+06
  19910      1    115     74       8.130          0.1815E+06
  19911      1    115     75       7.590          0.1815E+06
  19912      1    115     76       7.940          0.1815E+06
  19913      1    115     77       8.020          0.1815E+06
  19914      1    115     78       9.010          0.1815E+06
  19915      1    115     79       11.12          0.1815E+06
  19916      1    115     80       11.60          0.1815E+06
  19917      1    115     81       12.20          0.1815E+06
  19918      1    115     82       12.70          0.1815E+06
  19919      1    115     83       13.30          0.1815E+06
  19920      1    115     84       13.80          0.1815E+06
  19921      1    115     85       14.40          0.1815E+06
  19922      1    115     86       15.00          0.1815E+06
  19923      1    115     87       15.70          0.1815E+06
  19924      1    115     88       16.40          0.1815E+06
  19925      1    115     89       16.90          0.1815E+06
  19926      1    115     90       17.30          0.1815E+06
  19927      1    115     91       17.60          0.1815E+06
  19928      1    115     92       18.20          0.1815E+06
  19929      1    115     93       19.30          0.1815E+06
  19930      1    115     94       21.00          0.1815E+06
  19931      1    115     95       22.40          0.1815E+06
  19932      1    115     96       23.70          0.1815E+06
  19933      1    115     97       24.50          0.1815E+06
  19934      1    115     98       24.70          0.1815E+06
  19935      1    115     99       25.30          0.1815E+06
  19936      1    115    100       26.80          0.1815E+06
  19937      1    115    101       28.40          0.1815E+06
  19938      1    115    102       30.40          0.1815E+06
  19939      1    115    103       31.50          0.1815E+06
  19940      1    115    104       32.10          0.1815E+06
  19941      1    115    105       32.90          0.1815E+06
  19942      1    115    106       33.10          0.1815E+06
  19943      1    115    107       33.10          0.1815E+06
  19944      1    115    108       33.00          0.1815E+06
  19945      1    115    109       31.90          0.1815E+06
  19946      1    115    110       32.20          0.1815E+06
  19947      1    115    111       33.30          0.1815E+06
  19948      1    115    112       33.40          0.1815E+06
  19949      1    115    113       33.20          0.1815E+06
  19950      1    115    114       33.10          0.1815E+06
  19951      1    115    115       33.20          0.1815E+06
  19952      1    115    116       33.60          0.1815E+06
  19953      1    115    117       33.90          0.1815E+06
  19954      1    115    118       34.00          0.1815E+06
  19955      1    115    119       34.20          0.1815E+06
  19956      1    115    120       34.50          0.1815E+06
  19957      1    115    121       34.40          0.1815E+06
  19958      1    115    122       35.00          0.1815E+06
  19959      1    115    123       36.20          0.1815E+06
  19960      1    115    124       36.70          0.1815E+06
  19961      1    115    125       37.30          0.1815E+06
  19962      1    115    126       38.00          0.1815E+06
  19963      1    115    127       39.60          0.1815E+06
  19964      1    115    128       42.20          0.1815E+06
  19965      1    115    129       44.90          0.1815E+06
  19966      1    115    130       48.00          0.1815E+06
  19967      1    115    131       51.80          0.1815E+06
  19968      1    115    132       55.60          0.1815E+06
  19969      1    115    133       58.80          0.1815E+06
  19970      1    115    134       58.60          0.1815E+06
  19971      1    115    135       57.40          0.1815E+06
  19972      1    115    136       56.70          0.1815E+06
  19973      1    115    137       55.70          0.1815E+06
  19974      1    115    138       53.30          0.1815E+06
  19975      1    115    139       49.40          0.1815E+06
  19976      1    115    140       46.00          0.1815E+06
  19977      1    115    141       44.20          0.1815E+06
  19978      1    115    142       42.20          0.1815E+06
  19979      1    115    143       40.60          0.1815E+06
  19980      1    115    144       39.50          0.1815E+06
  19981      1    115    145       39.50          0.1815E+06
  19982      1    115    146       40.40          0.1815E+06
  19983      1    115    147       41.10          0.1815E+06
  19984      1    115    148       40.60          0.1815E+06
  19985      1    115    149       39.10          0.1815E+06
  19986      1    115    150       37.10          0.1815E+06
  19987      1    115    151       35.20          0.1815E+06
  19988      1    115    152       36.20          0.1815E+06
  19989      1    115    153       36.50          0.1815E+06
  19990      1    115    154       35.70          0.1815E+06
  19991      1    115    155       33.40          0.1815E+06
  19992      1    115    156       30.50          0.1815E+06
  19993      1    115    157       31.10          0.1815E+06
  19994      1    115    158       33.00          0.1815E+06
  19995      1    115    159       33.90          0.1815E+06
  19996      1    115    160       34.90          0.1815E+06
  19997      1    115    161       36.50          0.1815E+06
  19998      1    115    162       39.00          0.1815E+06
  19999      1    115    163       40.80          0.1815E+06
  20000      1    115    164       40.70          0.1815E+06
  20001      1    115    165       43.60          0.1815E+06
  20002      1    115    166       46.00          0.1815E+06
  20003      1    115    167       47.30          0.1815E+06
  20004      1    115    168       49.10          0.1815E+06
  20005      1    115    169       50.70          0.1815E+06
  20006      1    115    170       51.70          0.1815E+06
  20007      1    115    171       52.40          0.1815E+06
  20008      1    115    172       52.90          0.1815E+06
  20009      1    115    173       55.70          0.1815E+06
  20010      1    115    174       62.40          0.1815E+06
  20011      1    116      1      -10.62          0.1815E+06
  20012      1    116      2      -10.68          0.1815E+06
  20013      1    116      3      -10.68          0.1815E+06
  20014      1    116      4      -10.93          0.1815E+06
  20015      1    116      5      -10.63          0.1815E+06
  20016      1    116      6      -10.13          0.1815E+06
  20017      1    116      7      -10.45          0.1815E+06
  20018      1    116      8      -10.71          0.1815E+06
  20019      1    116      9      -10.71          0.1815E+06
  20020      1    116     10      -10.86          0.1815E+06
  20021      1    116     11      -10.73          0.1815E+06
  20022      1    116     12      -12.47          0.1815E+06
  20023      1    116     13      -12.22          0.1815E+06
  20024      1    116     14      -11.53          0.1815E+06
  20025      1    116     15      -11.53          0.1815E+06
  20026      1    116     16      -12.23          0.1815E+06
  20027      1    116     17      -12.03          0.1815E+06
  20028      1    116     18      -11.83          0.1815E+06
  20029      1    116     19      -11.50          0.1815E+06
  20030      1    116     20      -11.83          0.1815E+06
  20031      1    116     21      -11.83          0.1815E+06
  20032      1    116     22      -11.63          0.1815E+06
  20033      1    116     23      -11.03          0.1815E+06
  20034      1    116     24      -10.43          0.1815E+06
  20035      1    116     25      -9.930          0.1815E+06
  20036      1    116     26      -9.930          0.1815E+06
  20037      1    116     27      -9.380          0.1815E+06
  20038      1    116     28      -7.530          0.1815E+06
  20039      1    116     29      -6.130          0.1815E+06
  20040      1    116     30      -5.630          0.1815E+06
  20041      1    116     31      -5.430          0.1815E+06
  20042      1    116     32      -5.430          0.1815E+06
  20043      1    116     33      -5.830          0.1815E+06
  20044      1    116     34      -5.480          0.1815E+06
  20045      1    116     35      -5.530          0.1815E+06
  20046      1    116     36      -5.400          0.1815E+06
  20047      1    116     37      -5.270          0.1815E+06
  20048      1    116     38      -5.270          0.1815E+06
  20049      1    116     39      -4.550          0.1815E+06
  20050      1    116     40      -3.720          0.1815E+06
  20051      1    116     41      -4.120          0.1815E+06
  20052      1    116     42      -4.770          0.1815E+06
  20053      1    116     43      -3.920          0.1815E+06
  20054      1    116     44      -3.920          0.1815E+06
  20055      1    116     45      -1.900          0.1815E+06
  20056      1    116     46      0.5300          0.1815E+06
  20057      1    116     47       1.550          0.1815E+06
  20058      1    116     48       2.550          0.1815E+06
  20059      1    116     49       2.550          0.1815E+06
  20060      1    116     50       3.560          0.1815E+06
  20061      1    116     51       4.560          0.1815E+06
  20062      1    116     52       9.300          0.1815E+06
  20063      1    116     53       6.820          0.1815E+06
  20064      1    116     54       6.650          0.1815E+06
  20065      1    116     55       7.590          0.1815E+06
  20066      1    116     56       7.900          0.1815E+06
  20067      1    116     57       8.460          0.1815E+06
  20068      1    116     58       8.530          0.1815E+06
  20069      1    116     59       8.730          0.1815E+06
  20070      1    116     60       8.650          0.1815E+06
  20071      1    116     61       8.840          0.1815E+06
  20072      1    116     62       9.000          0.1815E+06
  20073      1    116     63       8.900          0.1815E+06
  20074      1    116     64       9.060          0.1815E+06
  20075      1    116     65       9.170          0.1815E+06
  20076      1    116     66       8.940          0.1815E+06
  20077      1    116     67       9.180          0.1815E+06
  20078      1    116     68       8.930          0.1815E+06
  20079      1    116     69       9.300          0.1815E+06
  20080      1    116     70       8.860          0.1815E+06
  20081      1    116     71       8.760          0.1815E+06
  20082      1    116     72       8.530          0.1815E+06
  20083      1    116     73       8.320          0.1815E+06
  20084      1    116     74       8.320          0.1815E+06
  20085      1    116     75       7.940          0.1815E+06
  20086      1    116     76       7.400          0.1815E+06
  20087      1    116     77       7.570          0.1815E+06
  20088      1    116     78       9.100          0.1815E+06
  20089      1    116     79       10.53          0.1815E+06
  20090      1    116     80       11.40          0.1815E+06
  20091      1    116     81       11.90          0.1815E+06
  20092      1    116     82       12.60          0.1815E+06
  20093      1    116     83       13.30          0.1815E+06
  20094      1    116     84       14.00          0.1815E+06
  20095      1    116     85       14.70          0.1815E+06
  20096      1    116     86       15.20          0.1815E+06
  20097      1    116     87       15.30          0.1815E+06
  20098      1    116     88       15.50          0.1815E+06
  20099      1    116     89       15.80          0.1815E+06
  20100      1    116     90       16.00          0.1815E+06
  20101      1    116     91       16.30          0.1815E+06
  20102      1    116     92       17.10          0.1815E+06
  20103      1    116     93       19.00          0.1815E+06
  20104      1    116     94       20.70          0.1815E+06
  20105      1    116     95       21.70          0.1815E+06
  20106      1    116     96       22.60          0.1815E+06
  20107      1    116     97       23.20          0.1815E+06
  20108      1    116     98       23.80          0.1815E+06
  20109      1    116     99       24.50          0.1815E+06
  20110      1    116    100       25.30          0.1815E+06
  20111      1    116    101       27.20          0.1815E+06
  20112      1    116    102       29.10          0.1815E+06
  20113      1    116    103       30.30          0.1815E+06
  20114      1    116    104       31.00          0.1815E+06
  20115      1    116    105       32.10          0.1815E+06
  20116      1    116    106       32.40          0.1815E+06
  20117      1    116    107       32.50          0.1815E+06
  20118      1    116    108       31.80          0.1815E+06
  20119      1    116    109       30.30          0.1815E+06
  20120      1    116    110       31.90          0.1815E+06
  20121      1    116    111       33.60          0.1815E+06
  20122      1    116    112       33.00          0.1815E+06
  20123      1    116    113       32.70          0.1815E+06
  20124      1    116    114       32.40          0.1815E+06
  20125      1    116    115       32.90          0.1815E+06
  20126      1    116    116       33.50          0.1815E+06
  20127      1    116    117       33.60          0.1815E+06
  20128      1    116    118       33.50          0.1815E+06
  20129      1    116    119       33.70          0.1815E+06
  20130      1    116    120       33.60          0.1815E+06
  20131      1    116    121       33.40          0.1815E+06
  20132      1    116    122       33.90          0.1815E+06
  20133      1    116    123       35.40          0.1815E+06
  20134      1    116    124       36.50          0.1815E+06
  20135      1    116    125       36.70          0.1815E+06
  20136      1    116    126       37.00          0.1815E+06
  20137      1    116    127       38.10          0.1815E+06
  20138      1    116    128       41.30          0.1815E+06
  20139      1    116    129       43.60          0.1815E+06
  20140      1    116    130       45.60          0.1815E+06
  20141      1    116    131       48.60          0.1815E+06
  20142      1    116    132       51.20          0.1815E+06
  20143      1    116    133       53.50          0.1815E+06
  20144      1    116    134       53.50          0.1815E+06
  20145      1    116    135       52.70          0.1815E+06
  20146      1    116    136       52.10          0.1815E+06
  20147      1    116    137       50.80          0.1815E+06
  20148      1    116    138       48.60          0.1815E+06
  20149      1    116    139       45.50          0.1815E+06
  20150      1    116    140       42.80          0.1815E+06
  20151      1    116    141       40.80          0.1815E+06
  20152      1    116    142       39.50          0.1815E+06
  20153      1    116    143       38.80          0.1815E+06
  20154      1    116    144       38.10          0.1815E+06
  20155      1    116    145       38.10          0.1815E+06
  20156      1    116    146       38.80          0.1815E+06
  20157      1    116    147       39.60          0.1815E+06
  20158      1    116    148       39.40          0.1815E+06
  20159      1    116    149       38.40          0.1815E+06
  20160      1    116    150       36.70          0.1815E+06
  20161      1    116    151       34.40          0.1815E+06
  20162      1    116    152       34.00          0.1815E+06
  20163      1    116    153       33.70          0.1815E+06
  20164      1    116    154       31.40          0.1815E+06
  20165      1    116    155       29.90          0.1815E+06
  20166      1    116    156       30.30          0.1815E+06
  20167      1    116    157       33.00          0.1815E+06
  20168      1    116    158       35.50          0.1815E+06
  20169      1    116    159       37.60          0.1815E+06
  20170      1    116    160       39.60          0.1815E+06
  20171      1    116    161       40.50          0.1815E+06
  20172      1    116    162       42.40          0.1815E+06
  20173      1    116    163       43.60          0.1815E+06
  20174      1    116    164       44.10          0.1815E+06
  20175      1    116    165       45.50          0.1815E+06
  20176      1    116    166       47.10          0.1815E+06
  20177      1    116    167       48.10          0.1815E+06
  20178      1    116    168       49.30          0.1815E+06
  20179      1    116    169       50.50          0.1815E+06
  20180      1    116    170       50.70          0.1815E+06
  20181      1    116    171       50.00          0.1815E+06
  20182      1    116    172       52.40          0.1815E+06
  20183      1    116    173       57.30          0.1815E+06
  20184      1    116    174       65.70          0.1815E+06
  20185      1    117      1      -11.13          0.1815E+06
  20186      1    117      2      -11.57          0.1815E+06
  20187      1    117      3      -11.57          0.1815E+06
  20188      1    117      4      -11.72          0.1815E+06
  20189      1    117      5      -11.61          0.1815E+06
  20190      1    117      6      -10.87          0.1815E+06
  20191      1    117      7      -9.930          0.1815E+06
  20192      1    117      8      -11.03          0.1815E+06
  20193      1    117      9      -11.03          0.1815E+06
  20194      1    117     10      -11.03          0.1815E+06
  20195      1    117     11      -9.740          0.1815E+06
  20196      1    117     12      -12.64          0.1815E+06
  20197      1    117     13      -12.54          0.1815E+06
  20198      1    117     14      -11.53          0.1815E+06
  20199      1    117     15      -11.53          0.1815E+06
  20200      1    117     16      -12.23          0.1815E+06
  20201      1    117     17      -11.83          0.1815E+06
  20202      1    117     18      -11.83          0.1815E+06
  20203      1    117     19      -12.03          0.1815E+06
  20204      1    117     20      -12.04          0.1815E+06
  20205      1    117     21      -12.04          0.1815E+06
  20206      1    117     22      -11.42          0.1815E+06
  20207      1    117     23      -11.05          0.1815E+06
  20208      1    117     24      -10.61          0.1815E+06
  20209      1    117     25      -10.20          0.1815E+06
  20210      1    117     26      -10.20          0.1815E+06
  20211      1    117     27      -9.440          0.1815E+06
  20212      1    117     28      -8.730          0.1815E+06
  20213      1    117     29      -6.540          0.1815E+06
  20214      1    117     30      -6.530          0.1815E+06
  20215      1    117     31      -5.250          0.1815E+06
  20216      1    117     32      -5.250          0.1815E+06
  20217      1    117     33      -5.620          0.1815E+06
  20218      1    117     34      -5.490          0.1815E+06
  20219      1    117     35      -5.090          0.1815E+06
  20220      1    117     36      -4.890          0.1815E+06
  20221      1    117     37      -5.230          0.1815E+06
  20222      1    117     38      -5.230          0.1815E+06
  20223      1    117     39      -4.550          0.1815E+06
  20224      1    117     40      -3.720          0.1815E+06
  20225      1    117     41      -4.120          0.1815E+06
  20226      1    117     42      -4.770          0.1815E+06
  20227      1    117     43      -4.870          0.1815E+06
  20228      1    117     44      -4.870          0.1815E+06
  20229      1    117     45      -4.820          0.1815E+06
  20230      1    117     46      -4.710          0.1815E+06
  20231      1    117     47      0.5500          0.1815E+06
  20232      1    117     48       1.560          0.1815E+06
  20233      1    117     49       1.560          0.1815E+06
  20234      1    117     50       3.060          0.1815E+06
  20235      1    117     51       4.560          0.1815E+06
  20236      1    117     52       6.710          0.1815E+06
  20237      1    117     53       6.840          0.1815E+06
  20238      1    117     54       8.210          0.1815E+06
  20239      1    117     55       7.440          0.1815E+06
  20240      1    117     56       8.100          0.1815E+06
  20241      1    117     57       8.170          0.1815E+06
  20242      1    117     58       8.350          0.1815E+06
  20243      1    117     59       8.640          0.1815E+06
  20244      1    117     60       8.750          0.1815E+06
  20245      1    117     61       8.770          0.1815E+06
  20246      1    117     62       10.10          0.1815E+06
  20247      1    117     63       8.980          0.1815E+06
  20248      1    117     64       8.850          0.1815E+06
  20249      1    117     65       9.190          0.1815E+06
  20250      1    117     66       9.110          0.1815E+06
  20251      1    117     67       9.090          0.1815E+06
  20252      1    117     68       8.970          0.1815E+06
  20253      1    117     69       9.020          0.1815E+06
  20254      1    117     70       8.900          0.1815E+06
  20255      1    117     71       8.680          0.1815E+06
  20256      1    117     72       8.560          0.1815E+06
  20257      1    117     73       8.180          0.1815E+06
  20258      1    117     74       8.270          0.1815E+06
  20259      1    117     75       8.060          0.1815E+06
  20260      1    117     76       7.840          0.1815E+06
  20261      1    117     77       7.320          0.1815E+06
  20262      1    117     78       8.510          0.1815E+06
  20263      1    117     79       11.59          0.1815E+06
  20264      1    117     80       11.10          0.1815E+06
  20265      1    117     81       11.50          0.1815E+06
  20266      1    117     82       12.10          0.1815E+06
  20267      1    117     83       12.90          0.1815E+06
  20268      1    117     84       13.70          0.1815E+06
  20269      1    117     85       14.40          0.1815E+06
  20270      1    117     86       14.50          0.1815E+06
  20271      1    117     87       14.50          0.1815E+06
  20272      1    117     88       14.60          0.1815E+06
  20273      1    117     89       14.60          0.1815E+06
  20274      1    117     90       14.60          0.1815E+06
  20275      1    117     91       14.80          0.1815E+06
  20276      1    117     92       16.20          0.1815E+06
  20277      1    117     93       18.10          0.1815E+06
  20278      1    117     94       19.70          0.1815E+06
  20279      1    117     95       20.80          0.1815E+06
  20280      1    117     96       21.60          0.1815E+06
  20281      1    117     97       22.30          0.1815E+06
  20282      1    117     98       22.90          0.1815E+06
  20283      1    117     99       23.60          0.1815E+06
  20284      1    117    100       24.70          0.1815E+06
  20285      1    117    101       26.10          0.1815E+06
  20286      1    117    102       27.80          0.1815E+06
  20287      1    117    103       29.00          0.1815E+06
  20288      1    117    104       30.00          0.1815E+06
  20289      1    117    105       31.40          0.1815E+06
  20290      1    117    106       31.90          0.1815E+06
  20291      1    117    107       31.80          0.1815E+06
  20292      1    117    108       31.00          0.1815E+06
  20293      1    117    109       29.90          0.1815E+06
  20294      1    117    110       31.30          0.1815E+06
  20295      1    117    111       32.50          0.1815E+06
  20296      1    117    112       32.40          0.1815E+06
  20297      1    117    113       30.30          0.1815E+06
  20298      1    117    114       29.60          0.1815E+06
  20299      1    117    115       32.10          0.1815E+06
  20300      1    117    116       32.90          0.1815E+06
  20301      1    117    117       33.10          0.1815E+06
  20302      1    117    118       33.20          0.1815E+06
  20303      1    117    119       33.00          0.1815E+06
  20304      1    117    120       32.70          0.1815E+06
  20305      1    117    121       33.00          0.1815E+06
  20306      1    117    122       33.90          0.1815E+06
  20307      1    117    123       35.20          0.1815E+06
  20308      1    117    124       36.20          0.1815E+06
  20309      1    117    125       36.50          0.1815E+06
  20310      1    117    126       36.80          0.1815E+06
  20311      1    117    127       37.30          0.1815E+06
  20312      1    117    128       40.40          0.1815E+06
  20313      1    117    129       42.80          0.1815E+06
  20314      1    117    130       44.70          0.1815E+06
  20315      1    117    131       46.80          0.1815E+06
  20316      1    117    132       48.40          0.1815E+06
  20317      1    117    133       49.20          0.1815E+06
  20318      1    117    134       48.80          0.1815E+06
  20319      1    117    135       48.00          0.1815E+06
  20320      1    117    136       47.20          0.1815E+06
  20321      1    117    137       46.30          0.1815E+06
  20322      1    117    138       44.90          0.1815E+06
  20323      1    117    139       43.20          0.1815E+06
  20324      1    117    140       40.80          0.1815E+06
  20325      1    117    141       39.00          0.1815E+06
  20326      1    117    142       38.10          0.1815E+06
  20327      1    117    143       37.50          0.1815E+06
  20328      1    117    144       36.90          0.1815E+06
  20329      1    117    145       36.50          0.1815E+06
  20330      1    117    146       37.00          0.1815E+06
  20331      1    117    147       38.00          0.1815E+06
  20332      1    117    148       38.30          0.1815E+06
  20333      1    117    149       38.10          0.1815E+06
  20334      1    117    150       37.10          0.1815E+06
  20335      1    117    151       33.90          0.1815E+06
  20336      1    117    152       30.80          0.1815E+06
  20337      1    117    153       31.20          0.1815E+06
  20338      1    117    154       29.60          0.1815E+06
  20339      1    117    155       30.40          0.1815E+06
  20340      1    117    156       33.20          0.1815E+06
  20341      1    117    157       36.10          0.1815E+06
  20342      1    117    158       37.80          0.1815E+06
  20343      1    117    159       40.50          0.1815E+06
  20344      1    117    160       42.70          0.1815E+06
  20345      1    117    161       43.30          0.1815E+06
  20346      1    117    162       44.00          0.1815E+06
  20347      1    117    163       45.30          0.1815E+06
  20348      1    117    164       45.90          0.1815E+06
  20349      1    117    165       46.50          0.1815E+06
  20350      1    117    166       47.30          0.1815E+06
  20351      1    117    167       48.30          0.1815E+06
  20352      1    117    168       48.80          0.1815E+06
  20353      1    117    169       48.90          0.1815E+06
  20354      1    117    170       48.80          0.1815E+06
  20355      1    117    171       49.20          0.1815E+06
  20356      1    117    172       52.10          0.1815E+06
  20357      1    117    173       58.80          0.1815E+06
  20358      1    117    174       67.90          0.1815E+06
  20359      1    118      1      -11.13          0.1815E+06
  20360      1    118      2      -11.57          0.1815E+06
  20361      1    118      3      -11.57          0.1815E+06
  20362      1    118      4      -11.72          0.1815E+06
  20363      1    118      5      -11.61          0.1815E+06
  20364      1    118      6      -10.87          0.1815E+06
  20365      1    118      7      -9.930          0.1815E+06
  20366      1    118      8      -11.03          0.1815E+06
  20367      1    118      9      -11.03          0.1815E+06
  20368      1    118     10      -11.03          0.1815E+06
  20369      1    118     11      -9.740          0.1815E+06
  20370      1    118     12      -12.64          0.1815E+06
  20371      1    118     13      -12.54          0.1815E+06
  20372      1    118     14      -11.53          0.1815E+06
  20373      1    118     15      -11.53          0.1815E+06
  20374      1    118     16      -12.23          0.1815E+06
  20375      1    118     17      -11.83          0.1815E+06
  20376      1    118     18      -11.83          0.1815E+06
  20377      1    118     19      -12.03          0.1815E+06
  20378      1    118     20      -12.04          0.1815E+06
  20379      1    118     21      -12.04          0.1815E+06
  20380      1    118     22      -11.42          0.1815E+06
  20381      1    118     23      -11.05          0.1815E+06
  20382      1    118     24      -10.61          0.1815E+06
  20383      1    118     25      -10.20          0.1815E+06
  20384      1    118     26      -10.20          0.1815E+06
  20385      1    118     27      -9.440          0.1815E+06
  20386      1    118     28      -8.730          0.1815E+06
  20387      1    118     29      -6.540          0.1815E+06
  20388      1    118     30      -6.530          0.1815E+06
  20389      1    118     31      -5.250          0.1815E+06
  20390      1    118     32      -5.250          0.1815E+06
  20391      1    118     33      -5.620          0.1815E+06
  20392      1    118     34      -5.490          0.1815E+06
  20393      1    118     35      -5.090          0.1815E+06
  20394      1    118     36      -4.890          0.1815E+06
  20395      1    118     37      -5.230          0.1815E+06
  20396      1    118     38      -5.230          0.1815E+06
  20397      1    118     39      -4.550          0.1815E+06
  20398      1    118     40      -3.720          0.1815E+06
  20399      1    118     41      -4.120          0.1815E+06
  20400      1    118     42      -4.770          0.1815E+06
  20401      1    118     43      -4.870          0.1815E+06
  20402      1    118     44      -4.870          0.1815E+06
  20403      1    118     45      -4.820          0.1815E+06
  20404      1    118     46      -4.710          0.1815E+06
  20405      1    118     47      0.5500          0.1815E+06
  20406      1    118     48       1.560          0.1815E+06
  20407      1    118     49       1.560          0.1815E+06
  20408      1    118     50       3.060          0.1815E+06
  20409      1    118     51       4.560          0.1815E+06
  20410      1    118     52       5.360          0.1815E+06
  20411      1    118     53       7.260          0.1815E+06
  20412      1    118     54       6.900          0.1815E+06
  20413      1    118     55       8.150          0.1815E+06
  20414      1    118     56       7.860          0.1815E+06
  20415      1    118     57       8.170          0.1815E+06
  20416      1    118     58       8.670          0.1815E+06
  20417      1    118     59       8.530          0.1815E+06
  20418      1    118     60       9.070          0.1815E+06
  20419      1    118     61       8.970          0.1815E+06
  20420      1    118     62       8.760          0.1815E+06
  20421      1    118     63       9.030          0.1815E+06
  20422      1    118     64       9.010          0.1815E+06
  20423      1    118     65       9.180          0.1815E+06
  20424      1    118     66       9.250          0.1815E+06
  20425      1    118     67       9.270          0.1815E+06
  20426      1    118     68       9.060          0.1815E+06
  20427      1    118     69       9.100          0.1815E+06
  20428      1    118     70       9.270          0.1815E+06
  20429      1    118     71       8.890          0.1815E+06
  20430      1    118     72       8.930          0.1815E+06
  20431      1    118     73       8.610          0.1815E+06
  20432      1    118     74       8.470          0.1815E+06
  20433      1    118     75       8.420          0.1815E+06
  20434      1    118     76       8.000          0.1815E+06
  20435      1    118     77       6.590          0.1815E+06
  20436      1    118     78       8.250          0.1815E+06
  20437      1    118     79       11.86          0.1815E+06
  20438      1    118     80       11.22          0.1815E+06
  20439      1    118     81       11.30          0.1815E+06
  20440      1    118     82       11.80          0.1815E+06
  20441      1    118     83       12.50          0.1815E+06
  20442      1    118     84       13.20          0.1815E+06
  20443      1    118     85       13.70          0.1815E+06
  20444      1    118     86       13.80          0.1815E+06
  20445      1    118     87       13.70          0.1815E+06
  20446      1    118     88       13.70          0.1815E+06
  20447      1    118     89       13.70          0.1815E+06
  20448      1    118     90       13.90          0.1815E+06
  20449      1    118     91       14.70          0.1815E+06
  20450      1    118     92       16.10          0.1815E+06
  20451      1    118     93       17.50          0.1815E+06
  20452      1    118     94       18.50          0.1815E+06
  20453      1    118     95       19.60          0.1815E+06
  20454      1    118     96       20.90          0.1815E+06
  20455      1    118     97       21.50          0.1815E+06
  20456      1    118     98       22.20          0.1815E+06
  20457      1    118     99       23.10          0.1815E+06
  20458      1    118    100       24.30          0.1815E+06
  20459      1    118    101       25.60          0.1815E+06
  20460      1    118    102       27.10          0.1815E+06
  20461      1    118    103       28.30          0.1815E+06
  20462      1    118    104       29.40          0.1815E+06
  20463      1    118    105       30.50          0.1815E+06
  20464      1    118    106       31.00          0.1815E+06
  20465      1    118    107       31.50          0.1815E+06
  20466      1    118    108       30.40          0.1815E+06
  20467      1    118    109       27.40          0.1815E+06
  20468      1    118    110       30.70          0.1815E+06
  20469      1    118    111       30.20          0.1815E+06
  20470      1    118    112       27.30          0.1815E+06
  20471      1    118    113       26.30          0.1815E+06
  20472      1    118    114       28.10          0.1815E+06
  20473      1    118    115       30.70          0.1815E+06
  20474      1    118    116       31.60          0.1815E+06
  20475      1    118    117       32.20          0.1815E+06
  20476      1    118    118       32.70          0.1815E+06
  20477      1    118    119       32.40          0.1815E+06
  20478      1    118    120       32.50          0.1815E+06
  20479      1    118    121       33.20          0.1815E+06
  20480      1    118    122       33.90          0.1815E+06
  20481      1    118    123       35.20          0.1815E+06
  20482      1    118    124       36.20          0.1815E+06
  20483      1    118    125       36.40          0.1815E+06
  20484      1    118    126       36.60          0.1815E+06
  20485      1    118    127       37.00          0.1815E+06
  20486      1    118    128       38.80          0.1815E+06
  20487      1    118    129       42.00          0.1815E+06
  20488      1    118    130       44.10          0.1815E+06
  20489      1    118    131       45.60          0.1815E+06
  20490      1    118    132       46.20          0.1815E+06
  20491      1    118    133       45.70          0.1815E+06
  20492      1    118    134       44.70          0.1815E+06
  20493      1    118    135       44.10          0.1815E+06
  20494      1    118    136       43.40          0.1815E+06
  20495      1    118    137       42.90          0.1815E+06
  20496      1    118    138       42.40          0.1815E+06
  20497      1    118    139       41.40          0.1815E+06
  20498      1    118    140       39.40          0.1815E+06
  20499      1    118    141       37.50          0.1815E+06
  20500      1    118    142       36.70          0.1815E+06
  20501      1    118    143       36.40          0.1815E+06
  20502      1    118    144       35.60          0.1815E+06
  20503      1    118    145       34.70          0.1815E+06
  20504      1    118    146       35.60          0.1815E+06
  20505      1    118    147       37.10          0.1815E+06
  20506      1    118    148       37.50          0.1815E+06
  20507      1    118    149       37.10          0.1815E+06
  20508      1    118    150       36.20          0.1815E+06
  20509      1    118    151       33.30          0.1815E+06
  20510      1    118    152       29.60          0.1815E+06
  20511      1    118    153       29.50          0.1815E+06
  20512      1    118    154       30.40          0.1815E+06
  20513      1    118    155       33.60          0.1815E+06
  20514      1    118    156       36.80          0.1815E+06
  20515      1    118    157       38.30          0.1815E+06
  20516      1    118    158       38.90          0.1815E+06
  20517      1    118    159       42.10          0.1815E+06
  20518      1    118    160       44.30          0.1815E+06
  20519      1    118    161       44.00          0.1815E+06
  20520      1    118    162       43.60          0.1815E+06
  20521      1    118    163       45.20          0.1815E+06
  20522      1    118    164       46.10          0.1815E+06
  20523      1    118    165       46.60          0.1815E+06
  20524      1    118    166       47.10          0.1815E+06
  20525      1    118    167       47.80          0.1815E+06
  20526      1    118    168       47.50          0.1815E+06
  20527      1    118    169       46.80          0.1815E+06
  20528      1    118    170       47.10          0.1815E+06
  20529      1    118    171       49.00          0.1815E+06
  20530      1    118    172       53.00          0.1815E+06
  20531      1    118    173       60.70          0.1815E+06
  20532      1    118    174       68.80          0.1815E+06
  20533      1    119      1      -12.13          0.1815E+06
  20534      1    119      2      -12.23          0.1815E+06
  20535      1    119      3      -12.23          0.1815E+06
  20536      1    119      4      -12.23          0.1815E+06
  20537      1    119      5      -12.43          0.1815E+06
  20538      1    119      6      -11.64          0.1815E+06
  20539      1    119      7      -11.64          0.1815E+06
  20540      1    119      8      -11.64          0.1815E+06
  20541      1    119      9      -11.64          0.1815E+06
  20542      1    119     10      -11.03          0.1815E+06
  20543      1    119     11      -9.740          0.1815E+06
  20544      1    119     12      -12.64          0.1815E+06
  20545      1    119     13      -12.54          0.1815E+06
  20546      1    119     14      -12.14          0.1815E+06
  20547      1    119     15      -12.14          0.1815E+06
  20548      1    119     16      -12.14          0.1815E+06
  20549      1    119     17      -12.14          0.1815E+06
  20550      1    119     18      -11.64          0.1815E+06
  20551      1    119     19      -10.94          0.1815E+06
  20552      1    119     20      -11.54          0.1815E+06
  20553      1    119     21      -11.54          0.1815E+06
  20554      1    119     22      -11.34          0.1815E+06
  20555      1    119     23      -10.94          0.1815E+06
  20556      1    119     24      -10.74          0.1815E+06
  20557      1    119     25      -10.54          0.1815E+06
  20558      1    119     26      -10.54          0.1815E+06
  20559      1    119     27      -9.660          0.1815E+06
  20560      1    119     28      -8.870          0.1815E+06
  20561      1    119     29      -7.730          0.1815E+06
  20562      1    119     30      -6.920          0.1815E+06
  20563      1    119     31      -4.770          0.1815E+06
  20564      1    119     32      -4.770          0.1815E+06
  20565      1    119     33      -5.840          0.1815E+06
  20566      1    119     34      -5.490          0.1815E+06
  20567      1    119     35      -5.090          0.1815E+06
  20568      1    119     36      -5.030          0.1815E+06
  20569      1    119     37      -5.230          0.1815E+06
  20570      1    119     38      -5.230          0.1815E+06
  20571      1    119     39      -4.730          0.1815E+06
  20572      1    119     40      -4.230          0.1815E+06
  20573      1    119     41      -4.830          0.1815E+06
  20574      1    119     42      -5.220          0.1815E+06
  20575      1    119     43      -5.020          0.1815E+06
  20576      1    119     44      -5.020          0.1815E+06
  20577      1    119     45      -4.820          0.1815E+06
  20578      1    119     46      -4.320          0.1815E+06
  20579      1    119     47      0.5400          0.1815E+06
  20580      1    119     48       1.550          0.1815E+06
  20581      1    119     49       1.550          0.1815E+06
  20582      1    119     50       2.560          0.1815E+06
  20583      1    119     51       3.570          0.1815E+06
  20584      1    119     52       8.570          0.1815E+06
  20585      1    119     53       8.860          0.1815E+06
  20586      1    119     54       6.960          0.1815E+06
  20587      1    119     55       8.720          0.1815E+06
  20588      1    119     56       8.090          0.1815E+06
  20589      1    119     57       8.380          0.1815E+06
  20590      1    119     58       8.560          0.1815E+06
  20591      1    119     59       8.430          0.1815E+06
  20592      1    119     60       8.680          0.1815E+06
  20593      1    119     61       8.780          0.1815E+06
  20594      1    119     62       8.850          0.1815E+06
  20595      1    119     63       8.970          0.1815E+06
  20596      1    119     64       9.130          0.1815E+06
  20597      1    119     65       9.260          0.1815E+06
  20598      1    119     66       9.220          0.1815E+06
  20599      1    119     67       9.320          0.1815E+06
  20600      1    119     68       9.320          0.1815E+06
  20601      1    119     69       9.230          0.1815E+06
  20602      1    119     70       9.310          0.1815E+06
  20603      1    119     71       9.270          0.1815E+06
  20604      1    119     72       8.930          0.1815E+06
  20605      1    119     73       9.030          0.1815E+06
  20606      1    119     74       8.650          0.1815E+06
  20607      1    119     75       8.690          0.1815E+06
  20608      1    119     76       8.820          0.1815E+06
  20609      1    119     77       7.960          0.1815E+06
  20610      1    119     78       7.030          0.1815E+06
  20611      1    119     79       9.470          0.1815E+06
  20612      1    119     80       11.24          0.1815E+06
  20613      1    119     81       11.18          0.1815E+06
  20614      1    119     82       11.50          0.1815E+06
  20615      1    119     83       12.10          0.1815E+06
  20616      1    119     84       12.80          0.1815E+06
  20617      1    119     85       13.10          0.1815E+06
  20618      1    119     86       13.20          0.1815E+06
  20619      1    119     87       13.00          0.1815E+06
  20620      1    119     88       12.90          0.1815E+06
  20621      1    119     89       13.20          0.1815E+06
  20622      1    119     90       14.00          0.1815E+06
  20623      1    119     91       15.50          0.1815E+06
  20624      1    119     92       16.60          0.1815E+06
  20625      1    119     93       17.00          0.1815E+06
  20626      1    119     94       17.20          0.1815E+06
  20627      1    119     95       18.10          0.1815E+06
  20628      1    119     96       19.50          0.1815E+06
  20629      1    119     97       20.60          0.1815E+06
  20630      1    119     98       21.70          0.1815E+06
  20631      1    119     99       22.80          0.1815E+06
  20632      1    119    100       24.00          0.1815E+06
  20633      1    119    101       25.60          0.1815E+06
  20634      1    119    102       26.90          0.1815E+06
  20635      1    119    103       27.80          0.1815E+06
  20636      1    119    104       28.40          0.1815E+06
  20637      1    119    105       28.80          0.1815E+06
  20638      1    119    106       29.50          0.1815E+06
  20639      1    119    107       30.10          0.1815E+06
  20640      1    119    108       27.80          0.1815E+06
  20641      1    119    109       24.10          0.1815E+06
  20642      1    119    110       27.30          0.1815E+06
  20643      1    119    111       25.70          0.1815E+06
  20644      1    119    112       27.10          0.1815E+06
  20645      1    119    113       32.10          0.1815E+06
  20646      1    119    114       32.30          0.1815E+06
  20647      1    119    115       30.20          0.1815E+06
  20648      1    119    116       30.00          0.1815E+06
  20649      1    119    117       30.60          0.1815E+06
  20650      1    119    118       31.70          0.1815E+06
  20651      1    119    119       32.70          0.1815E+06
  20652      1    119    120       33.30          0.1815E+06
  20653      1    119    121       33.60          0.1815E+06
  20654      1    119    122       33.90          0.1815E+06
  20655      1    119    123       34.60          0.1815E+06
  20656      1    119    124       35.90          0.1815E+06
  20657      1    119    125       36.30          0.1815E+06
  20658      1    119    126       36.20          0.1815E+06
  20659      1    119    127       36.40          0.1815E+06
  20660      1    119    128       38.20          0.1815E+06
  20661      1    119    129       41.30          0.1815E+06
  20662      1    119    130       43.30          0.1815E+06
  20663      1    119    131       44.10          0.1815E+06
  20664      1    119    132       44.20          0.1815E+06
  20665      1    119    133       43.40          0.1815E+06
  20666      1    119    134       42.50          0.1815E+06
  20667      1    119    135       41.70          0.1815E+06
  20668      1    119    136       41.10          0.1815E+06
  20669      1    119    137       40.50          0.1815E+06
  20670      1    119    138       40.20          0.1815E+06
  20671      1    119    139       39.80          0.1815E+06
  20672      1    119    140       38.20          0.1815E+06
  20673      1    119    141       36.30          0.1815E+06
  20674      1    119    142       35.40          0.1815E+06
  20675      1    119    143       35.40          0.1815E+06
  20676      1    119    144       34.20          0.1815E+06
  20677      1    119    145       33.40          0.1815E+06
  20678      1    119    146       34.40          0.1815E+06
  20679      1    119    147       36.10          0.1815E+06
  20680      1    119    148       36.60          0.1815E+06
  20681      1    119    149       35.70          0.1815E+06
  20682      1    119    150       34.00          0.1815E+06
  20683      1    119    151       31.00          0.1815E+06
  20684      1    119    152       29.00          0.1815E+06
  20685      1    119    153       29.80          0.1815E+06
  20686      1    119    154       33.20          0.1815E+06
  20687      1    119    155       36.20          0.1815E+06
  20688      1    119    156       38.00          0.1815E+06
  20689      1    119    157       39.20          0.1815E+06
  20690      1    119    158       39.00          0.1815E+06
  20691      1    119    159       41.90          0.1815E+06
  20692      1    119    160       43.90          0.1815E+06
  20693      1    119    161       43.50          0.1815E+06
  20694      1    119    162       43.50          0.1815E+06
  20695      1    119    163       44.20          0.1815E+06
  20696      1    119    164       45.60          0.1815E+06
  20697      1    119    165       46.10          0.1815E+06
  20698      1    119    166       46.50          0.1815E+06
  20699      1    119    167       46.70          0.1815E+06
  20700      1    119    168       46.30          0.1815E+06
  20701      1    119    169       45.10          0.1815E+06
  20702      1    119    170       45.50          0.1815E+06
  20703      1    119    171       48.60          0.1815E+06
  20704      1    119    172       53.30          0.1815E+06
  20705      1    119    173       61.20          0.1815E+06
  20706      1    119    174       68.70          0.1815E+06
  20707      1    120      1      -12.03          0.1815E+06
  20708      1    120      2      -11.94          0.1815E+06
  20709      1    120      3      -11.94          0.1815E+06
  20710      1    120      4      -11.34          0.1815E+06
  20711      1    120      5      -12.43          0.1815E+06
  20712      1    120      6      -11.04          0.1815E+06
  20713      1    120      7      -11.64          0.1815E+06
  20714      1    120      8      -11.64          0.1815E+06
  20715      1    120      9      -11.64          0.1815E+06
  20716      1    120     10      -10.94          0.1815E+06
  20717      1    120     11      -11.09          0.1815E+06
  20718      1    120     12      -12.54          0.1815E+06
  20719      1    120     13      -12.54          0.1815E+06
  20720      1    120     14      -12.38          0.1815E+06
  20721      1    120     15      -12.38          0.1815E+06
  20722      1    120     16      -12.28          0.1815E+06
  20723      1    120     17      -12.04          0.1815E+06
  20724      1    120     18      -12.04          0.1815E+06
  20725      1    120     19      -11.74          0.1815E+06
  20726      1    120     20      -11.69          0.1815E+06
  20727      1    120     21      -11.69          0.1815E+06
  20728      1    120     22      -11.13          0.1815E+06
  20729      1    120     23      -11.25          0.1815E+06
  20730      1    120     24      -11.31          0.1815E+06
  20731      1    120     25      -11.34          0.1815E+06
  20732      1    120     26      -11.34          0.1815E+06
  20733      1    120     27      -9.840          0.1815E+06
  20734      1    120     28      -9.140          0.1815E+06
  20735      1    120     29      -9.090          0.1815E+06
  20736      1    120     30      -6.920          0.1815E+06
  20737      1    120     31      -4.770          0.1815E+06
  20738      1    120     32      -4.770          0.1815E+06
  20739      1    120     33      -5.840          0.1815E+06
  20740      1    120     34      -5.840          0.1815E+06
  20741      1    120     35      -5.040          0.1815E+06
  20742      1    120     36      -5.430          0.1815E+06
  20743      1    120     37      -5.730          0.1815E+06
  20744      1    120     38      -5.730          0.1815E+06
  20745      1    120     39      -5.330          0.1815E+06
  20746      1    120     40      -5.330          0.1815E+06
  20747      1    120     41      -4.530          0.1815E+06
  20748      1    120     42      -4.630          0.1815E+06
  20749      1    120     43      -4.630          0.1815E+06
  20750      1    120     44      -4.630          0.1815E+06
  20751      1    120     45      -4.410          0.1815E+06
  20752      1    120     46      -3.820          0.1815E+06
  20753      1    120     47      0.5500          0.1815E+06
  20754      1    120     48      0.5500          0.1815E+06
  20755      1    120     49      0.5500          0.1815E+06
  20756      1    120     50       2.560          0.1815E+06
  20757      1    120     51       4.560          0.1815E+06
  20758      1    120     52       6.570          0.1815E+06
  20759      1    120     53       10.85          0.1815E+06
  20760      1    120     54       7.030          0.1815E+06
  20761      1    120     55       7.710          0.1815E+06
  20762      1    120     56       7.860          0.1815E+06
  20763      1    120     57       8.010          0.1815E+06
  20764      1    120     58       8.280          0.1815E+06
  20765      1    120     59       8.960          0.1815E+06
  20766      1    120     60       8.770          0.1815E+06
  20767      1    120     61       9.850          0.1815E+06
  20768      1    120     62       9.840          0.1815E+06
  20769      1    120     63       9.360          0.1815E+06
  20770      1    120     64       10.39          0.1815E+06
  20771      1    120     65       9.280          0.1815E+06
  20772      1    120     66       9.220          0.1815E+06
  20773      1    120     67       9.350          0.1815E+06
  20774      1    120     68       9.600          0.1815E+06
  20775      1    120     69       9.390          0.1815E+06
  20776      1    120     70       9.340          0.1815E+06
  20777      1    120     71       9.880          0.1815E+06
  20778      1    120     72       9.340          0.1815E+06
  20779      1    120     73       9.260          0.1815E+06
  20780      1    120     74       8.940          0.1815E+06
  20781      1    120     75       8.880          0.1815E+06
  20782      1    120     76       8.570          0.1815E+06
  20783      1    120     77       8.130          0.1815E+06
  20784      1    120     78       6.570          0.1815E+06
  20785      1    120     79       7.320          0.1815E+06
  20786      1    120     80       9.230          0.1815E+06
  20787      1    120     81       10.60          0.1815E+06
  20788      1    120     82       11.50          0.1815E+06
  20789      1    120     83       11.70          0.1815E+06
  20790      1    120     84       12.10          0.1815E+06
  20791      1    120     85       12.50          0.1815E+06
  20792      1    120     86       12.40          0.1815E+06
  20793      1    120     87       12.10          0.1815E+06
  20794      1    120     88       12.20          0.1815E+06
  20795      1    120     89       12.90          0.1815E+06
  20796      1    120     90       14.50          0.1815E+06
  20797      1    120     91       15.90          0.1815E+06
  20798      1    120     92       16.70          0.1815E+06
  20799      1    120     93       16.40          0.1815E+06
  20800      1    120     94       15.70          0.1815E+06
  20801      1    120     95       15.90          0.1815E+06
  20802      1    120     96       18.00          0.1815E+06
  20803      1    120     97       20.30          0.1815E+06
  20804      1    120     98       21.40          0.1815E+06
  20805      1    120     99       22.10          0.1815E+06
  20806      1    120    100       23.60          0.1815E+06
  20807      1    120    101       25.50          0.1815E+06
  20808      1    120    102       26.40          0.1815E+06
  20809      1    120    103       27.10          0.1815E+06
  20810      1    120    104       27.30          0.1815E+06
  20811      1    120    105       27.00          0.1815E+06
  20812      1    120    106       26.20          0.1815E+06
  20813      1    120    107       25.10          0.1815E+06
  20814      1    120    108       21.20          0.1815E+06
  20815      1    120    109       20.50          0.1815E+06
  20816      1    120    110       23.70          0.1815E+06
  20817      1    120    111       26.20          0.1815E+06
  20818      1    120    112       30.10          0.1815E+06
  20819      1    120    113       33.00          0.1815E+06
  20820      1    120    114       33.60          0.1815E+06
  20821      1    120    115       32.20          0.1815E+06
  20822      1    120    116       30.80          0.1815E+06
  20823      1    120    117       29.80          0.1815E+06
  20824      1    120    118       30.90          0.1815E+06
  20825      1    120    119       32.70          0.1815E+06
  20826      1    120    120       33.60          0.1815E+06
  20827      1    120    121       34.00          0.1815E+06
  20828      1    120    122       34.00          0.1815E+06
  20829      1    120    123       33.90          0.1815E+06
  20830      1    120    124       34.60          0.1815E+06
  20831      1    120    125       35.90          0.1815E+06
  20832      1    120    126       36.10          0.1815E+06
  20833      1    120    127       36.40          0.1815E+06
  20834      1    120    128       38.50          0.1815E+06
  20835      1    120    129       41.40          0.1815E+06
  20836      1    120    130       42.60          0.1815E+06
  20837      1    120    131       42.80          0.1815E+06
  20838      1    120    132       42.50          0.1815E+06
  20839      1    120    133       41.70          0.1815E+06
  20840      1    120    134       40.80          0.1815E+06
  20841      1    120    135       39.50          0.1815E+06
  20842      1    120    136       38.60          0.1815E+06
  20843      1    120    137       37.90          0.1815E+06
  20844      1    120    138       38.00          0.1815E+06
  20845      1    120    139       38.60          0.1815E+06
  20846      1    120    140       38.10          0.1815E+06
  20847      1    120    141       36.40          0.1815E+06
  20848      1    120    142       34.80          0.1815E+06
  20849      1    120    143       34.00          0.1815E+06
  20850      1    120    144       32.80          0.1815E+06
  20851      1    120    145       31.90          0.1815E+06
  20852      1    120    146       32.90          0.1815E+06
  20853      1    120    147       35.00          0.1815E+06
  20854      1    120    148       35.80          0.1815E+06
  20855      1    120    149       34.30          0.1815E+06
  20856      1    120    150       31.80          0.1815E+06
  20857      1    120    151       29.70          0.1815E+06
  20858      1    120    152       29.10          0.1815E+06
  20859      1    120    153       31.80          0.1815E+06
  20860      1    120    154       35.80          0.1815E+06
  20861      1    120    155       37.10          0.1815E+06
  20862      1    120    156       37.80          0.1815E+06
  20863      1    120    157       38.50          0.1815E+06
  20864      1    120    158       38.80          0.1815E+06
  20865      1    120    159       40.30          0.1815E+06
  20866      1    120    160       42.40          0.1815E+06
  20867      1    120    161       42.00          0.1815E+06
  20868      1    120    162       42.20          0.1815E+06
  20869      1    120    163       43.40          0.1815E+06
  20870      1    120    164       44.30          0.1815E+06
  20871      1    120    165       45.20          0.1815E+06
  20872      1    120    166       45.30          0.1815E+06
  20873      1    120    167       45.20          0.1815E+06
  20874      1    120    168       44.90          0.1815E+06
  20875      1    120    169       44.30          0.1815E+06
  20876      1    120    170       45.10          0.1815E+06
  20877      1    120    171       47.50          0.1815E+06
  20878      1    120    172       53.10          0.1815E+06
  20879      1    120    173       60.50          0.1815E+06
  20880      1    120    174       68.00          0.1815E+06
  20881      1    121      1      -12.03          0.1815E+06
  20882      1    121      2      -11.94          0.1815E+06
  20883      1    121      3      -11.94          0.1815E+06
  20884      1    121      4      -11.34          0.1815E+06
  20885      1    121      5      -11.14          0.1815E+06
  20886      1    121      6      -12.14          0.1815E+06
  20887      1    121      7      -11.99          0.1815E+06
  20888      1    121      8      -11.94          0.1815E+06
  20889      1    121      9      -11.94          0.1815E+06
  20890      1    121     10      -11.90          0.1815E+06
  20891      1    121     11      -12.54          0.1815E+06
  20892      1    121     12      -12.74          0.1815E+06
  20893      1    121     13      -12.14          0.1815E+06
  20894      1    121     14      -12.44          0.1815E+06
  20895      1    121     15      -12.44          0.1815E+06
  20896      1    121     16      -12.04          0.1815E+06
  20897      1    121     17      -12.39          0.1815E+06
  20898      1    121     18      -12.29          0.1815E+06
  20899      1    121     19      -11.64          0.1815E+06
  20900      1    121     20      -11.44          0.1815E+06
  20901      1    121     21      -11.44          0.1815E+06
  20902      1    121     22      -10.84          0.1815E+06
  20903      1    121     23      -11.54          0.1815E+06
  20904      1    121     24      -11.34          0.1815E+06
  20905      1    121     25      -11.34          0.1815E+06
  20906      1    121     26      -11.34          0.1815E+06
  20907      1    121     27      -9.840          0.1815E+06
  20908      1    121     28      -9.140          0.1815E+06
  20909      1    121     29      -9.090          0.1815E+06
  20910      1    121     30      -8.840          0.1815E+06
  20911      1    121     31      -5.540          0.1815E+06
  20912      1    121     32      -5.540          0.1815E+06
  20913      1    121     33      -6.340          0.1815E+06
  20914      1    121     34      -6.240          0.1815E+06
  20915      1    121     35      -6.240          0.1815E+06
  20916      1    121     36      -5.340          0.1815E+06
  20917      1    121     37      -5.240          0.1815E+06
  20918      1    121     38      -5.240          0.1815E+06
  20919      1    121     39      -5.240          0.1815E+06
  20920      1    121     40      -5.230          0.1815E+06
  20921      1    121     41      -4.430          0.1815E+06
  20922      1    121     42      -4.830          0.1815E+06
  20923      1    121     43      -4.430          0.1815E+06
  20924      1    121     44      -4.430          0.1815E+06
  20925      1    121     45      -4.230          0.1815E+06
  20926      1    121     46      -3.330          0.1815E+06
  20927      1    121     47      0.5500          0.1815E+06
  20928      1    121     48      0.5500          0.1815E+06
  20929      1    121     49      0.5500          0.1815E+06
  20930      1    121     50       2.560          0.1815E+06
  20931      1    121     51       4.560          0.1815E+06
  20932      1    121     52       6.570          0.1815E+06
  20933      1    121     53       6.300          0.1815E+06
  20934      1    121     54       7.170          0.1815E+06
  20935      1    121     55       7.690          0.1815E+06
  20936      1    121     56       7.940          0.1815E+06
  20937      1    121     57       8.310          0.1815E+06
  20938      1    121     58       8.530          0.1815E+06
  20939      1    121     59       9.110          0.1815E+06
  20940      1    121     60       9.510          0.1815E+06
  20941      1    121     61       9.340          0.1815E+06
  20942      1    121     62       9.250          0.1815E+06
  20943      1    121     63       9.340          0.1815E+06
  20944      1    121     64       9.320          0.1815E+06
  20945      1    121     65       9.310          0.1815E+06
  20946      1    121     66       9.560          0.1815E+06
  20947      1    121     67       9.390          0.1815E+06
  20948      1    121     68       9.390          0.1815E+06
  20949      1    121     69       9.510          0.1815E+06
  20950      1    121     70       9.320          0.1815E+06
  20951      1    121     71       9.390          0.1815E+06
  20952      1    121     72       9.380          0.1815E+06
  20953      1    121     73       8.980          0.1815E+06
  20954      1    121     74       9.050          0.1815E+06
  20955      1    121     75       8.930          0.1815E+06
  20956      1    121     76       8.650          0.1815E+06
  20957      1    121     77       7.760          0.1815E+06
  20958      1    121     78       7.250          0.1815E+06
  20959      1    121     79       6.840          0.1815E+06
  20960      1    121     80       6.380          0.1815E+06
  20961      1    121     81       8.600          0.1815E+06
  20962      1    121     82       10.96          0.1815E+06
  20963      1    121     83       11.40          0.1815E+06
  20964      1    121     84       11.60          0.1815E+06
  20965      1    121     85       11.80          0.1815E+06
  20966      1    121     86       11.40          0.1815E+06
  20967      1    121     87       11.05          0.1815E+06
  20968      1    121     88       11.44          0.1815E+06
  20969      1    121     89       12.40          0.1815E+06
  20970      1    121     90       13.40          0.1815E+06
  20971      1    121     91       15.20          0.1815E+06
  20972      1    121     92       15.40          0.1815E+06
  20973      1    121     93       14.70          0.1815E+06
  20974      1    121     94       14.40          0.1815E+06
  20975      1    121     95       14.80          0.1815E+06
  20976      1    121     96       17.20          0.1815E+06
  20977      1    121     97       19.50          0.1815E+06
  20978      1    121     98       20.40          0.1815E+06
  20979      1    121     99       20.80          0.1815E+06
  20980      1    121    100       22.40          0.1815E+06
  20981      1    121    101       23.80          0.1815E+06
  20982      1    121    102       25.20          0.1815E+06
  20983      1    121    103       26.10          0.1815E+06
  20984      1    121    104       26.10          0.1815E+06
  20985      1    121    105       24.80          0.1815E+06
  20986      1    121    106       22.80          0.1815E+06
  20987      1    121    107       20.50          0.1815E+06
  20988      1    121    108       21.90          0.1815E+06
  20989      1    121    109       26.30          0.1815E+06
  20990      1    121    110       28.60          0.1815E+06
  20991      1    121    111       30.30          0.1815E+06
  20992      1    121    112       32.30          0.1815E+06
  20993      1    121    113       33.40          0.1815E+06
  20994      1    121    114       33.70          0.1815E+06
  20995      1    121    115       33.60          0.1815E+06
  20996      1    121    116       32.60          0.1815E+06
  20997      1    121    117       30.40          0.1815E+06
  20998      1    121    118       30.30          0.1815E+06
  20999      1    121    119       31.70          0.1815E+06
  21000      1    121    120       33.10          0.1815E+06
  21001      1    121    121       33.80          0.1815E+06
  21002      1    121    122       34.00          0.1815E+06
  21003      1    121    123       33.90          0.1815E+06
  21004      1    121    124       34.10          0.1815E+06
  21005      1    121    125       35.40          0.1815E+06
  21006      1    121    126       36.30          0.1815E+06
  21007      1    121    127       36.80          0.1815E+06
  21008      1    121    128       38.10          0.1815E+06
  21009      1    121    129       40.70          0.1815E+06
  21010      1    121    130       41.60          0.1815E+06
  21011      1    121    131       41.50          0.1815E+06
  21012      1    121    132       40.90          0.1815E+06
  21013      1    121    133       40.00          0.1815E+06
  21014      1    121    134       38.80          0.1815E+06
  21015      1    121    135       37.30          0.1815E+06
  21016      1    121    136       36.60          0.1815E+06
  21017      1    121    137       36.10          0.1815E+06
  21018      1    121    138       36.20          0.1815E+06
  21019      1    121    139       38.00          0.1815E+06
  21020      1    121    140       38.20          0.1815E+06
  21021      1    121    141       37.10          0.1815E+06
  21022      1    121    142       35.90          0.1815E+06
  21023      1    121    143       34.00          0.1815E+06
  21024      1    121    144       32.20          0.1815E+06
  21025      1    121    145       30.50          0.1815E+06
  21026      1    121    146       31.30          0.1815E+06
  21027      1    121    147       33.40          0.1815E+06
  21028      1    121    148       34.10          0.1815E+06
  21029      1    121    149       32.80          0.1815E+06
  21030      1    121    150       30.20          0.1815E+06
  21031      1    121    151       28.70          0.1815E+06
  21032      1    121    152       29.60          0.1815E+06
  21033      1    121    153       34.30          0.1815E+06
  21034      1    121    154       37.10          0.1815E+06
  21035      1    121    155       37.40          0.1815E+06
  21036      1    121    156       37.70          0.1815E+06
  21037      1    121    157       38.10          0.1815E+06
  21038      1    121    158       38.60          0.1815E+06
  21039      1    121    159       39.60          0.1815E+06
  21040      1    121    160       40.60          0.1815E+06
  21041      1    121    161       40.20          0.1815E+06
  21042      1    121    162       40.20          0.1815E+06
  21043      1    121    163       41.90          0.1815E+06
  21044      1    121    164       43.30          0.1815E+06
  21045      1    121    165       43.60          0.1815E+06
  21046      1    121    166       43.50          0.1815E+06
  21047      1    121    167       43.40          0.1815E+06
  21048      1    121    168       42.70          0.1815E+06
  21049      1    121    169       43.50          0.1815E+06
  21050      1    121    170       44.90          0.1815E+06
  21051      1    121    171       47.10          0.1815E+06
  21052      1    121    172       52.70          0.1815E+06
  21053      1    121    173       59.50          0.1815E+06
  21054      1    121    174       65.60          0.1815E+06
  21055      1    122      1      -12.12          0.1815E+06
  21056      1    122      2      -11.93          0.1815E+06
  21057      1    122      3      -11.93          0.1815E+06
  21058      1    122      4      -11.63          0.1815E+06
  21059      1    122      5      -11.72          0.1815E+06
  21060      1    122      6      -12.44          0.1815E+06
  21061      1    122      7      -12.64          0.1815E+06
  21062      1    122      8      -12.24          0.1815E+06
  21063      1    122      9      -12.24          0.1815E+06
  21064      1    122     10      -12.34          0.1815E+06
  21065      1    122     11      -12.54          0.1815E+06
  21066      1    122     12      -12.94          0.1815E+06
  21067      1    122     13      -12.74          0.1815E+06
  21068      1    122     14      -12.74          0.1815E+06
  21069      1    122     15      -12.74          0.1815E+06
  21070      1    122     16      -12.55          0.1815E+06
  21071      1    122     17      -12.75          0.1815E+06
  21072      1    122     18      -12.35          0.1815E+06
  21073      1    122     19      -12.05          0.1815E+06
  21074      1    122     20      -11.44          0.1815E+06
  21075      1    122     21      -11.44          0.1815E+06
  21076      1    122     22      -10.84          0.1815E+06
  21077      1    122     23      -11.54          0.1815E+06
  21078      1    122     24      -11.34          0.1815E+06
  21079      1    122     25      -10.14          0.1815E+06
  21080      1    122     26      -10.14          0.1815E+06
  21081      1    122     27      -9.450          0.1815E+06
  21082      1    122     28      -10.24          0.1815E+06
  21083      1    122     29      -9.840          0.1815E+06
  21084      1    122     30      -9.140          0.1815E+06
  21085      1    122     31      -8.540          0.1815E+06
  21086      1    122     32      -8.540          0.1815E+06
  21087      1    122     33      -6.340          0.1815E+06
  21088      1    122     34      -6.040          0.1815E+06
  21089      1    122     35      -5.240          0.1815E+06
  21090      1    122     36      -6.140          0.1815E+06
  21091      1    122     37      -6.740          0.1815E+06
  21092      1    122     38      -6.740          0.1815E+06
  21093      1    122     39      -6.280          0.1815E+06
  21094      1    122     40      -5.960          0.1815E+06
  21095      1    122     41      -6.140          0.1815E+06
  21096      1    122     42      -4.880          0.1815E+06
  21097      1    122     43      -3.240          0.1815E+06
  21098      1    122     44      -3.240          0.1815E+06
  21099      1    122     45      -4.230          0.1815E+06
  21100      1    122     46      -3.330          0.1815E+06
  21101      1    122     47      0.5500          0.1815E+06
  21102      1    122     48      0.5500          0.1815E+06
  21103      1    122     49      0.5500          0.1815E+06
  21104      1    122     50       1.560          0.1815E+06
  21105      1    122     51       3.560          0.1815E+06
  21106      1    122     52       4.570          0.1815E+06
  21107      1    122     53       8.070          0.1815E+06
  21108      1    122     54       7.530          0.1815E+06
  21109      1    122     55       7.940          0.1815E+06
  21110      1    122     56       7.670          0.1815E+06
  21111      1    122     57       8.140          0.1815E+06
  21112      1    122     58       8.440          0.1815E+06
  21113      1    122     59       8.930          0.1815E+06
  21114      1    122     60       9.280          0.1815E+06
  21115      1    122     61       9.230          0.1815E+06
  21116      1    122     62       8.940          0.1815E+06
  21117      1    122     63       9.230          0.1815E+06
  21118      1    122     64       8.720          0.1815E+06
  21119      1    122     65       9.390          0.1815E+06
  21120      1    122     66       9.510          0.1815E+06
  21121      1    122     67       9.800          0.1815E+06
  21122      1    122     68       9.440          0.1815E+06
  21123      1    122     69       9.520          0.1815E+06
  21124      1    122     70       9.600          0.1815E+06
  21125      1    122     71       10.52          0.1815E+06
  21126      1    122     72       9.420          0.1815E+06
  21127      1    122     73       9.110          0.1815E+06
  21128      1    122     74       8.980          0.1815E+06
  21129      1    122     75       9.070          0.1815E+06
  21130      1    122     76       8.810          0.1815E+06
  21131      1    122     77       8.210          0.1815E+06
  21132      1    122     78       7.260          0.1815E+06
  21133      1    122     79       6.900          0.1815E+06
  21134      1    122     80       6.210          0.1815E+06
  21135      1    122     81       6.230          0.1815E+06
  21136      1    122     82       8.690          0.1815E+06
  21137      1    122     83       9.940          0.1815E+06
  21138      1    122     84       11.50          0.1815E+06
  21139      1    122     85       11.60          0.1815E+06
  21140      1    122     86       11.20          0.1815E+06
  21141      1    122     87       9.510          0.1815E+06
  21142      1    122     88       10.01          0.1815E+06
  21143      1    122     89       11.40          0.1815E+06
  21144      1    122     90       12.30          0.1815E+06
  21145      1    122     91       12.90          0.1815E+06
  21146      1    122     92       12.80          0.1815E+06
  21147      1    122     93       12.40          0.1815E+06
  21148      1    122     94       12.90          0.1815E+06
  21149      1    122     95       14.60          0.1815E+06
  21150      1    122     96       16.40          0.1815E+06
  21151      1    122     97       17.90          0.1815E+06
  21152      1    122     98       18.70          0.1815E+06
  21153      1    122     99       20.10          0.1815E+06
  21154      1    122    100       21.70          0.1815E+06
  21155      1    122    101       22.50          0.1815E+06
  21156      1    122    102       23.30          0.1815E+06
  21157      1    122    103       24.30          0.1815E+06
  21158      1    122    104       24.00          0.1815E+06
  21159      1    122    105       22.00          0.1815E+06
  21160      1    122    106       17.20          0.1815E+06
  21161      1    122    107       18.80          0.1815E+06
  21162      1    122    108       26.50          0.1815E+06
  21163      1    122    109       29.00          0.1815E+06
  21164      1    122    110       30.50          0.1815E+06
  21165      1    122    111       31.30          0.1815E+06
  21166      1    122    112       32.70          0.1815E+06
  21167      1    122    113       32.70          0.1815E+06
  21168      1    122    114       33.40          0.1815E+06
  21169      1    122    115       33.80          0.1815E+06
  21170      1    122    116       33.10          0.1815E+06
  21171      1    122    117       31.20          0.1815E+06
  21172      1    122    118       29.80          0.1815E+06
  21173      1    122    119       30.70          0.1815E+06
  21174      1    122    120       32.50          0.1815E+06
  21175      1    122    121       33.50          0.1815E+06
  21176      1    122    122       34.00          0.1815E+06
  21177      1    122    123       34.10          0.1815E+06
  21178      1    122    124       34.10          0.1815E+06
  21179      1    122    125       35.20          0.1815E+06
  21180      1    122    126       36.30          0.1815E+06
  21181      1    122    127       37.00          0.1815E+06
  21182      1    122    128       38.10          0.1815E+06
  21183      1    122    129       39.30          0.1815E+06
  21184      1    122    130       40.30          0.1815E+06
  21185      1    122    131       40.30          0.1815E+06
  21186      1    122    132       39.70          0.1815E+06
  21187      1    122    133       38.80          0.1815E+06
  21188      1    122    134       37.70          0.1815E+06
  21189      1    122    135       36.60          0.1815E+06
  21190      1    122    136       35.90          0.1815E+06
  21191      1    122    137       35.10          0.1815E+06
  21192      1    122    138       35.00          0.1815E+06
  21193      1    122    139       37.40          0.1815E+06
  21194      1    122    140       37.90          0.1815E+06
  21195      1    122    141       37.30          0.1815E+06
  21196      1    122    142       36.50          0.1815E+06
  21197      1    122    143       34.90          0.1815E+06
  21198      1    122    144       33.30          0.1815E+06
  21199      1    122    145       31.30          0.1815E+06
  21200      1    122    146       29.80          0.1815E+06
  21201      1    122    147       30.80          0.1815E+06
  21202      1    122    148       31.90          0.1815E+06
  21203      1    122    149       31.30          0.1815E+06
  21204      1    122    150       29.30          0.1815E+06
  21205      1    122    151       28.50          0.1815E+06
  21206      1    122    152       31.50          0.1815E+06
  21207      1    122    153       36.40          0.1815E+06
  21208      1    122    154       37.40          0.1815E+06
  21209      1    122    155       37.60          0.1815E+06
  21210      1    122    156       37.90          0.1815E+06
  21211      1    122    157       38.00          0.1815E+06
  21212      1    122    158       38.30          0.1815E+06
  21213      1    122    159       38.80          0.1815E+06
  21214      1    122    160       39.30          0.1815E+06
  21215      1    122    161       39.50          0.1815E+06
  21216      1    122    162       39.50          0.1815E+06
  21217      1    122    163       40.30          0.1815E+06
  21218      1    122    164       41.40          0.1815E+06
  21219      1    122    165       42.00          0.1815E+06
  21220      1    122    166       41.90          0.1815E+06
  21221      1    122    167       42.00          0.1815E+06
  21222      1    122    168       42.30          0.1815E+06
  21223      1    122    169       43.40          0.1815E+06
  21224      1    122    170       44.80          0.1815E+06
  21225      1    122    171       47.20          0.1815E+06
  21226      1    122    172       51.20          0.1815E+06
  21227      1    122    173       56.60          0.1815E+06
  21228      1    122    174       62.70          0.1815E+06
  21229      1    123      1      -12.12          0.1815E+06
  21230      1    123      2      -11.93          0.1815E+06
  21231      1    123      3      -11.93          0.1815E+06
  21232      1    123      4      -11.63          0.1815E+06
  21233      1    123      5      -11.72          0.1815E+06
  21234      1    123      6      -12.44          0.1815E+06
  21235      1    123      7      -12.64          0.1815E+06
  21236      1    123      8      -12.24          0.1815E+06
  21237      1    123      9      -12.24          0.1815E+06
  21238      1    123     10      -12.34          0.1815E+06
  21239      1    123     11      -12.54          0.1815E+06
  21240      1    123     12      -12.94          0.1815E+06
  21241      1    123     13      -12.74          0.1815E+06
  21242      1    123     14      -12.74          0.1815E+06
  21243      1    123     15      -12.74          0.1815E+06
  21244      1    123     16      -12.55          0.1815E+06
  21245      1    123     17      -12.75          0.1815E+06
  21246      1    123     18      -12.35          0.1815E+06
  21247      1    123     19      -12.05          0.1815E+06
  21248      1    123     20      -11.44          0.1815E+06
  21249      1    123     21      -11.44          0.1815E+06
  21250      1    123     22      -10.84          0.1815E+06
  21251      1    123     23      -11.54          0.1815E+06
  21252      1    123     24      -11.34          0.1815E+06
  21253      1    123     25      -10.14          0.1815E+06
  21254      1    123     26      -10.14          0.1815E+06
  21255      1    123     27      -9.450          0.1815E+06
  21256      1    123     28      -10.24          0.1815E+06
  21257      1    123     29      -9.840          0.1815E+06
  21258      1    123     30      -9.140          0.1815E+06
  21259      1    123     31      -8.540          0.1815E+06
  21260      1    123     32      -8.540          0.1815E+06
  21261      1    123     33      -6.340          0.1815E+06
  21262      1    123     34      -6.040          0.1815E+06
  21263      1    123     35      -5.240          0.1815E+06
  21264      1    123     36      -6.140          0.1815E+06
  21265      1    123     37      -6.740          0.1815E+06
  21266      1    123     38      -6.740          0.1815E+06
  21267      1    123     39      -6.280          0.1815E+06
  21268      1    123     40      -5.960          0.1815E+06
  21269      1    123     41      -6.140          0.1815E+06
  21270      1    123     42      -4.880          0.1815E+06
  21271      1    123     43      -3.240          0.1815E+06
  21272      1    123     44      -3.240          0.1815E+06
  21273      1    123     45      -4.230          0.1815E+06
  21274      1    123     46      -3.330          0.1815E+06
  21275      1    123     47      0.5500          0.1815E+06
  21276      1    123     48      0.5500          0.1815E+06
  21277      1    123     49      0.5500          0.1815E+06
  21278      1    123     50       1.560          0.1815E+06
  21279      1    123     51       3.560          0.1815E+06
  21280      1    123     52       4.570          0.1815E+06
  21281      1    123     53       8.070          0.1815E+06
  21282      1    123     54       8.420          0.1815E+06
  21283      1    123     55       7.150          0.1815E+06
  21284      1    123     56       7.650          0.1815E+06
  21285      1    123     57       8.140          0.1815E+06
  21286      1    123     58       8.350          0.1815E+06
  21287      1    123     59       8.690          0.1815E+06
  21288      1    123     60       8.890          0.1815E+06
  21289      1    123     61       8.890          0.1815E+06
  21290      1    123     62       9.100          0.1815E+06
  21291      1    123     63       9.020          0.1815E+06
  21292      1    123     64       9.360          0.1815E+06
  21293      1    123     65       9.430          0.1815E+06
  21294      1    123     66       9.430          0.1815E+06
  21295      1    123     67       9.970          0.1815E+06
  21296      1    123     68       9.520          0.1815E+06
  21297      1    123     69       9.470          0.1815E+06
  21298      1    123     70       9.270          0.1815E+06
  21299      1    123     71       9.420          0.1815E+06
  21300      1    123     72       9.470          0.1815E+06
  21301      1    123     73       9.100          0.1815E+06
  21302      1    123     74       8.970          0.1815E+06
  21303      1    123     75       9.510          0.1815E+06
  21304      1    123     76       8.400          0.1815E+06
  21305      1    123     77       7.460          0.1815E+06
  21306      1    123     78       7.750          0.1815E+06
  21307      1    123     79       6.650          0.1815E+06
  21308      1    123     80       6.570          0.1815E+06
  21309      1    123     81       6.050          0.1815E+06
  21310      1    123     82       6.380          0.1815E+06
  21311      1    123     83       9.110          0.1815E+06
  21312      1    123     84       9.840          0.1815E+06
  21313      1    123     85       10.59          0.1815E+06
  21314      1    123     86       9.960          0.1815E+06
  21315      1    123     87       8.060          0.1815E+06
  21316      1    123     88       8.310          0.1815E+06
  21317      1    123     89       9.860          0.1815E+06
  21318      1    123     90       10.14          0.1815E+06
  21319      1    123     91       9.770          0.1815E+06
  21320      1    123     92       9.640          0.1815E+06
  21321      1    123     93       9.930          0.1815E+06
  21322      1    123     94       11.91          0.1815E+06
  21323      1    123     95       14.02          0.1815E+06
  21324      1    123     96       15.64          0.1815E+06
  21325      1    123     97       17.00          0.1815E+06
  21326      1    123     98       18.10          0.1815E+06
  21327      1    123     99       19.50          0.1815E+06
  21328      1    123    100       21.10          0.1815E+06
  21329      1    123    101       20.60          0.1815E+06
  21330      1    123    102       20.60          0.1815E+06
  21331      1    123    103       20.90          0.1815E+06
  21332      1    123    104       19.80          0.1815E+06
  21333      1    123    105       17.60          0.1815E+06
  21334      1    123    106       15.90          0.1815E+06
  21335      1    123    107       22.70          0.1815E+06
  21336      1    123    108       26.50          0.1815E+06
  21337      1    123    109       28.40          0.1815E+06
  21338      1    123    110       28.70          0.1815E+06
  21339      1    123    111       28.90          0.1815E+06
  21340      1    123    112       30.60          0.1815E+06
  21341      1    123    113       31.00          0.1815E+06
  21342      1    123    114       31.80          0.1815E+06
  21343      1    123    115       33.90          0.1815E+06
  21344      1    123    116       33.20          0.1815E+06
  21345      1    123    117       31.80          0.1815E+06
  21346      1    123    118       30.60          0.1815E+06
  21347      1    123    119       30.50          0.1815E+06
  21348      1    123    120       32.40          0.1815E+06
  21349      1    123    121       33.50          0.1815E+06
  21350      1    123    122       33.80          0.1815E+06
  21351      1    123    123       34.10          0.1815E+06
  21352      1    123    124       34.10          0.1815E+06
  21353      1    123    125       34.50          0.1815E+06
  21354      1    123    126       35.70          0.1815E+06
  21355      1    123    127       36.60          0.1815E+06
  21356      1    123    128       38.00          0.1815E+06
  21357      1    123    129       38.90          0.1815E+06
  21358      1    123    130       39.40          0.1815E+06
  21359      1    123    131       39.40          0.1815E+06
  21360      1    123    132       39.10          0.1815E+06
  21361      1    123    133       38.50          0.1815E+06
  21362      1    123    134       37.40          0.1815E+06
  21363      1    123    135       36.40          0.1815E+06
  21364      1    123    136       35.50          0.1815E+06
  21365      1    123    137       34.80          0.1815E+06
  21366      1    123    138       35.00          0.1815E+06
  21367      1    123    139       36.60          0.1815E+06
  21368      1    123    140       37.30          0.1815E+06
  21369      1    123    141       37.00          0.1815E+06
  21370      1    123    142       36.70          0.1815E+06
  21371      1    123    143       36.40          0.1815E+06
  21372      1    123    144       35.20          0.1815E+06
  21373      1    123    145       33.00          0.1815E+06
  21374      1    123    146       30.60          0.1815E+06
  21375      1    123    147       28.90          0.1815E+06
  21376      1    123    148       29.50          0.1815E+06
  21377      1    123    149       29.50          0.1815E+06
  21378      1    123    150       28.90          0.1815E+06
  21379      1    123    151       30.00          0.1815E+06
  21380      1    123    152       35.40          0.1815E+06
  21381      1    123    153       37.10          0.1815E+06
  21382      1    123    154       37.20          0.1815E+06
  21383      1    123    155       37.60          0.1815E+06
  21384      1    123    156       37.80          0.1815E+06
  21385      1    123    157       37.50          0.1815E+06
  21386      1    123    158       37.60          0.1815E+06
  21387      1    123    159       38.10          0.1815E+06
  21388      1    123    160       38.70          0.1815E+06
  21389      1    123    161       38.90          0.1815E+06
  21390      1    123    162       38.90          0.1815E+06
  21391      1    123    163       39.00          0.1815E+06
  21392      1    123    164       40.00          0.1815E+06
  21393      1    123    165       41.00          0.1815E+06
  21394      1    123    166       40.80          0.1815E+06
  21395      1    123    167       41.00          0.1815E+06
  21396      1    123    168       42.60          0.1815E+06
  21397      1    123    169       43.60          0.1815E+06
  21398      1    123    170       44.30          0.1815E+06
  21399      1    123    171       46.00          0.1815E+06
  21400      1    123    172       49.40          0.1815E+06
  21401      1    123    173       53.80          0.1815E+06
  21402      1    123    174       58.20          0.1815E+06
  21403      1    124      1      -12.34          0.1815E+06
  21404      1    124      2      -12.14          0.1815E+06
  21405      1    124      3      -12.14          0.1815E+06
  21406      1    124      4      -12.14          0.1815E+06
  21407      1    124      5      -12.44          0.1815E+06
  21408      1    124      6      -12.39          0.1815E+06
  21409      1    124      7      -12.34          0.1815E+06
  21410      1    124      8      -12.64          0.1815E+06
  21411      1    124      9      -12.64          0.1815E+06
  21412      1    124     10      -12.65          0.1815E+06
  21413      1    124     11      -12.35          0.1815E+06
  21414      1    124     12      -12.75          0.1815E+06
  21415      1    124     13      -13.15          0.1815E+06
  21416      1    124     14      -12.40          0.1815E+06
  21417      1    124     15      -12.40          0.1815E+06
  21418      1    124     16      -12.55          0.1815E+06
  21419      1    124     17      -12.75          0.1815E+06
  21420      1    124     18      -12.35          0.1815E+06
  21421      1    124     19      -12.05          0.1815E+06
  21422      1    124     20      -11.75          0.1815E+06
  21423      1    124     21      -11.75          0.1815E+06
  21424      1    124     22      -11.55          0.1815E+06
  21425      1    124     23      -12.05          0.1815E+06
  21426      1    124     24      -12.05          0.1815E+06
  21427      1    124     25      -10.95          0.1815E+06
  21428      1    124     26      -10.95          0.1815E+06
  21429      1    124     27      -10.65          0.1815E+06
  21430      1    124     28      -9.850          0.1815E+06
  21431      1    124     29      -9.400          0.1815E+06
  21432      1    124     30      -8.850          0.1815E+06
  21433      1    124     31      -8.650          0.1815E+06
  21434      1    124     32      -8.650          0.1815E+06
  21435      1    124     33      -6.550          0.1815E+06
  21436      1    124     34      -6.550          0.1815E+06
  21437      1    124     35      -6.350          0.1815E+06
  21438      1    124     36      -6.600          0.1815E+06
  21439      1    124     37      -6.940          0.1815E+06
  21440      1    124     38      -6.940          0.1815E+06
  21441      1    124     39      -6.740          0.1815E+06
  21442      1    124     40      -5.640          0.1815E+06
  21443      1    124     41      -6.140          0.1815E+06
  21444      1    124     42      -4.880          0.1815E+06
  21445      1    124     43      -3.240          0.1815E+06
  21446      1    124     44      -3.240          0.1815E+06
  21447      1    124     45      -4.870          0.1815E+06
  21448      1    124     46      -5.110          0.1815E+06
  21449      1    124     47      -4.630          0.1815E+06
  21450      1    124     48      0.5500          0.1815E+06
  21451      1    124     49      0.5500          0.1815E+06
  21452      1    124     50       1.560          0.1815E+06
  21453      1    124     51       3.570          0.1815E+06
  21454      1    124     52       4.570          0.1815E+06
  21455      1    124     53       7.570          0.1815E+06
  21456      1    124     54       9.430          0.1815E+06
  21457      1    124     55       8.150          0.1815E+06
  21458      1    124     56       7.710          0.1815E+06
  21459      1    124     57       7.860          0.1815E+06
  21460      1    124     58       8.610          0.1815E+06
  21461      1    124     59       7.960          0.1815E+06
  21462      1    124     60       8.930          0.1815E+06
  21463      1    124     61       9.020          0.1815E+06
  21464      1    124     62       9.890          0.1815E+06
  21465      1    124     63       9.270          0.1815E+06
  21466      1    124     64       9.270          0.1815E+06
  21467      1    124     65       9.600          0.1815E+06
  21468      1    124     66       9.560          0.1815E+06
  21469      1    124     67       9.390          0.1815E+06
  21470      1    124     68       9.380          0.1815E+06
  21471      1    124     69       9.940          0.1815E+06
  21472      1    124     70       9.390          0.1815E+06
  21473      1    124     71       9.220          0.1815E+06
  21474      1    124     72       8.880          0.1815E+06
  21475      1    124     73       9.230          0.1815E+06
  21476      1    124     74       8.970          0.1815E+06
  21477      1    124     75       8.420          0.1815E+06
  21478      1    124     76       8.130          0.1815E+06
  21479      1    124     77       7.570          0.1815E+06
  21480      1    124     78       7.190          0.1815E+06
  21481      1    124     79       6.280          0.1815E+06
  21482      1    124     80       6.550          0.1815E+06
  21483      1    124     81       6.150          0.1815E+06
  21484      1    124     82       5.960          0.1815E+06
  21485      1    124     83       6.230          0.1815E+06
  21486      1    124     84       7.300          0.1815E+06
  21487      1    124     85       7.840          0.1815E+06
  21488      1    124     86       7.840          0.1815E+06
  21489      1    124     87       6.960          0.1815E+06
  21490      1    124     88       7.250          0.1815E+06
  21491      1    124     89       8.030          0.1815E+06
  21492      1    124     90       8.220          0.1815E+06
  21493      1    124     91       9.670          0.1815E+06
  21494      1    124     92       10.80          0.1815E+06
  21495      1    124     93       11.61          0.1815E+06
  21496      1    124     94       12.47          0.1815E+06
  21497      1    124     95       13.63          0.1815E+06
  21498      1    124     96       15.44          0.1815E+06
  21499      1    124     97       15.30          0.1815E+06
  21500      1    124     98       16.27          0.1815E+06
  21501      1    124     99       16.21          0.1815E+06
  21502      1    124    100       18.16          0.1815E+06
  21503      1    124    101       18.46          0.1815E+06
  21504      1    124    102       17.30          0.1815E+06
  21505      1    124    103       16.40          0.1815E+06
  21506      1    124    104       14.80          0.1815E+06
  21507      1    124    105       14.30          0.1815E+06
  21508      1    124    106       17.50          0.1815E+06
  21509      1    124    107       22.20          0.1815E+06
  21510      1    124    108       25.20          0.1815E+06
  21511      1    124    109       26.50          0.1815E+06
  21512      1    124    110       26.40          0.1815E+06
  21513      1    124    111       25.80          0.1815E+06
  21514      1    124    112       27.80          0.1815E+06
  21515      1    124    113       29.60          0.1815E+06
  21516      1    124    114       31.40          0.1815E+06
  21517      1    124    115       34.20          0.1815E+06
  21518      1    124    116       33.50          0.1815E+06
  21519      1    124    117       32.30          0.1815E+06
  21520      1    124    118       31.40          0.1815E+06
  21521      1    124    119       31.00          0.1815E+06
  21522      1    124    120       32.20          0.1815E+06
  21523      1    124    121       33.40          0.1815E+06
  21524      1    124    122       33.70          0.1815E+06
  21525      1    124    123       33.90          0.1815E+06
  21526      1    124    124       34.20          0.1815E+06
  21527      1    124    125       34.30          0.1815E+06
  21528      1    124    126       35.00          0.1815E+06
  21529      1    124    127       36.10          0.1815E+06
  21530      1    124    128       37.50          0.1815E+06
  21531      1    124    129       38.60          0.1815E+06
  21532      1    124    130       38.80          0.1815E+06
  21533      1    124    131       38.80          0.1815E+06
  21534      1    124    132       38.70          0.1815E+06
  21535      1    124    133       38.40          0.1815E+06
  21536      1    124    134       37.50          0.1815E+06
  21537      1    124    135       36.50          0.1815E+06
  21538      1    124    136       35.50          0.1815E+06
  21539      1    124    137       34.50          0.1815E+06
  21540      1    124    138       35.10          0.1815E+06
  21541      1    124    139       36.40          0.1815E+06
  21542      1    124    140       36.80          0.1815E+06
  21543      1    124    141       36.60          0.1815E+06
  21544      1    124    142       36.80          0.1815E+06
  21545      1    124    143       36.80          0.1815E+06
  21546      1    124    144       35.30          0.1815E+06
  21547      1    124    145       33.70          0.1815E+06
  21548      1    124    146       32.20          0.1815E+06
  21549      1    124    147       28.90          0.1815E+06
  21550      1    124    148       27.50          0.1815E+06
  21551      1    124    149       28.30          0.1815E+06
  21552      1    124    150       29.60          0.1815E+06
  21553      1    124    151       33.70          0.1815E+06
  21554      1    124    152       36.80          0.1815E+06
  21555      1    124    153       36.60          0.1815E+06
  21556      1    124    154       36.70          0.1815E+06
  21557      1    124    155       37.20          0.1815E+06
  21558      1    124    156       37.20          0.1815E+06
  21559      1    124    157       37.00          0.1815E+06
  21560      1    124    158       37.00          0.1815E+06
  21561      1    124    159       37.60          0.1815E+06
  21562      1    124    160       38.10          0.1815E+06
  21563      1    124    161       38.30          0.1815E+06
  21564      1    124    162       38.20          0.1815E+06
  21565      1    124    163       38.30          0.1815E+06
  21566      1    124    164       39.00          0.1815E+06
  21567      1    124    165       39.80          0.1815E+06
  21568      1    124    166       39.60          0.1815E+06
  21569      1    124    167       39.60          0.1815E+06
  21570      1    124    168       41.60          0.1815E+06
  21571      1    124    169       42.80          0.1815E+06
  21572      1    124    170       43.70          0.1815E+06
  21573      1    124    171       45.40          0.1815E+06
  21574      1    124    172       49.00          0.1815E+06
  21575      1    124    173       52.00          0.1815E+06
  21576      1    124    174       54.10          0.1815E+06
  21577      1    125      1      -12.24          0.1815E+06
  21578      1    125      2      -12.34          0.1815E+06
  21579      1    125      3      -12.34          0.1815E+06
  21580      1    125      4      -12.64          0.1815E+06
  21581      1    125      5      -12.45          0.1815E+06
  21582      1    125      6      -12.45          0.1815E+06
  21583      1    125      7      -12.20          0.1815E+06
  21584      1    125      8      -12.25          0.1815E+06
  21585      1    125      9      -12.25          0.1815E+06
  21586      1    125     10      -12.65          0.1815E+06
  21587      1    125     11      -12.35          0.1815E+06
  21588      1    125     12      -12.75          0.1815E+06
  21589      1    125     13      -13.15          0.1815E+06
  21590      1    125     14      -12.25          0.1815E+06
  21591      1    125     15      -12.25          0.1815E+06
  21592      1    125     16      -12.65          0.1815E+06
  21593      1    125     17      -12.65          0.1815E+06
  21594      1    125     18      -12.87          0.1815E+06
  21595      1    125     19      -13.25          0.1815E+06
  21596      1    125     20      -13.65          0.1815E+06
  21597      1    125     21      -13.65          0.1815E+06
  21598      1    125     22      -13.05          0.1815E+06
  21599      1    125     23      -12.75          0.1815E+06
  21600      1    125     24      -10.45          0.1815E+06
  21601      1    125     25      -10.65          0.1815E+06
  21602      1    125     26      -10.65          0.1815E+06
  21603      1    125     27      -10.75          0.1815E+06
  21604      1    125     28      -10.45          0.1815E+06
  21605      1    125     29      -10.95          0.1815E+06
  21606      1    125     30      -9.450          0.1815E+06
  21607      1    125     31      -9.350          0.1815E+06
  21608      1    125     32      -9.350          0.1815E+06
  21609      1    125     33      -8.510          0.1815E+06
  21610      1    125     34      -8.150          0.1815E+06
  21611      1    125     35      -7.250          0.1815E+06
  21612      1    125     36      -6.600          0.1815E+06
  21613      1    125     37      -6.940          0.1815E+06
  21614      1    125     38      -6.940          0.1815E+06
  21615      1    125     39      -6.740          0.1815E+06
  21616      1    125     40      -5.640          0.1815E+06
  21617      1    125     41      -5.860          0.1815E+06
  21618      1    125     42      -5.530          0.1815E+06
  21619      1    125     43      -5.540          0.1815E+06
  21620      1    125     44      -5.540          0.1815E+06
  21621      1    125     45      -5.340          0.1815E+06
  21622      1    125     46      -5.040          0.1815E+06
  21623      1    125     47      -4.690          0.1815E+06
  21624      1    125     48      -2.020          0.1815E+06
  21625      1    125     49      -2.020          0.1815E+06
  21626      1    125     50       1.560          0.1815E+06
  21627      1    125     51       2.560          0.1815E+06
  21628      1    125     52       4.560          0.1815E+06
  21629      1    125     53       6.560          0.1815E+06
  21630      1    125     54       7.170          0.1815E+06
  21631      1    125     55       7.420          0.1815E+06
  21632      1    125     56       7.380          0.1815E+06
  21633      1    125     57       8.170          0.1815E+06
  21634      1    125     58       8.020          0.1815E+06
  21635      1    125     59       8.570          0.1815E+06
  21636      1    125     60       9.110          0.1815E+06
  21637      1    125     61       9.730          0.1815E+06
  21638      1    125     62       9.320          0.1815E+06
  21639      1    125     63       9.310          0.1815E+06
  21640      1    125     64       9.500          0.1815E+06
  21641      1    125     65       9.630          0.1815E+06
  21642      1    125     66       9.530          0.1815E+06
  21643      1    125     67       9.680          0.1815E+06
  21644      1    125     68       9.770          0.1815E+06
  21645      1    125     69       9.550          0.1815E+06
  21646      1    125     70       9.280          0.1815E+06
  21647      1    125     71       9.560          0.1815E+06
  21648      1    125     72       9.270          0.1815E+06
  21649      1    125     73       8.940          0.1815E+06
  21650      1    125     74       9.000          0.1815E+06
  21651      1    125     75       8.480          0.1815E+06
  21652      1    125     76       9.340          0.1815E+06
  21653      1    125     77       7.820          0.1815E+06
  21654      1    125     78       7.190          0.1815E+06
  21655      1    125     79       6.210          0.1815E+06
  21656      1    125     80       6.260          0.1815E+06
  21657      1    125     81       5.960          0.1815E+06
  21658      1    125     82       5.880          0.1815E+06
  21659      1    125     83       5.960          0.1815E+06
  21660      1    125     84       5.630          0.1815E+06
  21661      1    125     85       5.780          0.1815E+06
  21662      1    125     86       5.920          0.1815E+06
  21663      1    125     87       6.900          0.1815E+06
  21664      1    125     88       8.390          0.1815E+06
  21665      1    125     89       9.570          0.1815E+06
  21666      1    125     90       10.19          0.1815E+06
  21667      1    125     91       10.73          0.1815E+06
  21668      1    125     92       11.76          0.1815E+06
  21669      1    125     93       11.81          0.1815E+06
  21670      1    125     94       12.93          0.1815E+06
  21671      1    125     95       13.50          0.1815E+06
  21672      1    125     96       14.31          0.1815E+06
  21673      1    125     97       14.31          0.1815E+06
  21674      1    125     98       15.64          0.1815E+06
  21675      1    125     99       15.39          0.1815E+06
  21676      1    125    100       16.34          0.1815E+06
  21677      1    125    101       16.35          0.1815E+06
  21678      1    125    102       14.38          0.1815E+06
  21679      1    125    103       13.46          0.1815E+06
  21680      1    125    104       12.36          0.1815E+06
  21681      1    125    105       13.50          0.1815E+06
  21682      1    125    106       16.50          0.1815E+06
  21683      1    125    107       19.50          0.1815E+06
  21684      1    125    108       22.00          0.1815E+06
  21685      1    125    109       24.50          0.1815E+06
  21686      1    125    110       24.40          0.1815E+06
  21687      1    125    111       23.90          0.1815E+06
  21688      1    125    112       27.40          0.1815E+06
  21689      1    125    113       30.10          0.1815E+06
  21690      1    125    114       32.10          0.1815E+06
  21691      1    125    115       33.80          0.1815E+06
  21692      1    125    116       33.40          0.1815E+06
  21693      1    125    117       32.40          0.1815E+06
  21694      1    125    118       31.80          0.1815E+06
  21695      1    125    119       31.50          0.1815E+06
  21696      1    125    120       31.90          0.1815E+06
  21697      1    125    121       33.20          0.1815E+06
  21698      1    125    122       33.50          0.1815E+06
  21699      1    125    123       33.80          0.1815E+06
  21700      1    125    124       34.20          0.1815E+06
  21701      1    125    125       34.40          0.1815E+06
  21702      1    125    126       34.90          0.1815E+06
  21703      1    125    127       36.00          0.1815E+06
  21704      1    125    128       37.20          0.1815E+06
  21705      1    125    129       38.10          0.1815E+06
  21706      1    125    130       38.20          0.1815E+06
  21707      1    125    131       38.10          0.1815E+06
  21708      1    125    132       37.90          0.1815E+06
  21709      1    125    133       37.60          0.1815E+06
  21710      1    125    134       37.20          0.1815E+06
  21711      1    125    135       36.50          0.1815E+06
  21712      1    125    136       35.50          0.1815E+06
  21713      1    125    137       34.50          0.1815E+06
  21714      1    125    138       34.60          0.1815E+06
  21715      1    125    139       36.20          0.1815E+06
  21716      1    125    140       36.60          0.1815E+06
  21717      1    125    141       36.40          0.1815E+06
  21718      1    125    142       36.60          0.1815E+06
  21719      1    125    143       37.00          0.1815E+06
  21720      1    125    144       36.20          0.1815E+06
  21721      1    125    145       34.40          0.1815E+06
  21722      1    125    146       33.60          0.1815E+06
  21723      1    125    147       30.70          0.1815E+06
  21724      1    125    148       28.40          0.1815E+06
  21725      1    125    149       27.70          0.1815E+06
  21726      1    125    150       30.50          0.1815E+06
  21727      1    125    151       34.60          0.1815E+06
  21728      1    125    152       36.70          0.1815E+06
  21729      1    125    153       36.40          0.1815E+06
  21730      1    125    154       36.40          0.1815E+06
  21731      1    125    155       36.70          0.1815E+06
  21732      1    125    156       36.70          0.1815E+06
  21733      1    125    157       36.50          0.1815E+06
  21734      1    125    158       36.50          0.1815E+06
  21735      1    125    159       36.90          0.1815E+06
  21736      1    125    160       37.30          0.1815E+06
  21737      1    125    161       37.60          0.1815E+06
  21738      1    125    162       37.40          0.1815E+06
  21739      1    125    163       37.40          0.1815E+06
  21740      1    125    164       37.70          0.1815E+06
  21741      1    125    165       38.10          0.1815E+06
  21742      1    125    166       38.60          0.1815E+06
  21743      1    125    167       39.30          0.1815E+06
  21744      1    125    168       40.30          0.1815E+06
  21745      1    125    169       41.90          0.1815E+06
  21746      1    125    170       43.70          0.1815E+06
  21747      1    125    171       45.60          0.1815E+06
  21748      1    125    172       47.90          0.1815E+06
  21749      1    125    173       50.10          0.1815E+06
  21750      1    125    174       51.80          0.1815E+06
  21751      1    126      1      -11.95          0.1815E+06
  21752      1    126      2      -12.15          0.1815E+06
  21753      1    126      3      -12.15          0.1815E+06
  21754      1    126      4      -12.35          0.1815E+06
  21755      1    126      5      -12.28          0.1815E+06
  21756      1    126      6      -11.65          0.1815E+06
  21757      1    126      7      -12.20          0.1815E+06
  21758      1    126      8      -12.25          0.1815E+06
  21759      1    126      9      -12.25          0.1815E+06
  21760      1    126     10      -12.65          0.1815E+06
  21761      1    126     11      -12.75          0.1815E+06
  21762      1    126     12      -12.75          0.1815E+06
  21763      1    126     13      -13.25          0.1815E+06
  21764      1    126     14      -12.85          0.1815E+06
  21765      1    126     15      -12.85          0.1815E+06
  21766      1    126     16      -12.85          0.1815E+06
  21767      1    126     17      -12.95          0.1815E+06
  21768      1    126     18      -13.15          0.1815E+06
  21769      1    126     19      -12.55          0.1815E+06
  21770      1    126     20      -12.05          0.1815E+06
  21771      1    126     21      -12.05          0.1815E+06
  21772      1    126     22      -11.45          0.1815E+06
  21773      1    126     23      -11.15          0.1815E+06
  21774      1    126     24      -10.65          0.1815E+06
  21775      1    126     25      -9.950          0.1815E+06
  21776      1    126     26      -9.950          0.1815E+06
  21777      1    126     27      -9.750          0.1815E+06
  21778      1    126     28      -10.45          0.1815E+06
  21779      1    126     29      -9.850          0.1815E+06
  21780      1    126     30      -9.950          0.1815E+06
  21781      1    126     31      -9.350          0.1815E+06
  21782      1    126     32      -9.350          0.1815E+06
  21783      1    126     33      -8.510          0.1815E+06
  21784      1    126     34      -8.150          0.1815E+06
  21785      1    126     35      -7.250          0.1815E+06
  21786      1    126     36      -6.950          0.1815E+06
  21787      1    126     37      -7.230          0.1815E+06
  21788      1    126     38      -7.230          0.1815E+06
  21789      1    126     39      -6.960          0.1815E+06
  21790      1    126     40      -5.740          0.1815E+06
  21791      1    126     41      -5.540          0.1815E+06
  21792      1    126     42      -5.340          0.1815E+06
  21793      1    126     43      -5.490          0.1815E+06
  21794      1    126     44      -5.490          0.1815E+06
  21795      1    126     45      -5.150          0.1815E+06
  21796      1    126     46      -5.020          0.1815E+06
  21797      1    126     47      -4.840          0.1815E+06
  21798      1    126     48      -4.540          0.1815E+06
  21799      1    126     49      -4.540          0.1815E+06
  21800      1    126     50      0.5600          0.1815E+06
  21801      1    126     51       2.560          0.1815E+06
  21802      1    126     52       3.560          0.1815E+06
  21803      1    126     53       5.570          0.1815E+06
  21804      1    126     54       6.280          0.1815E+06
  21805      1    126     55       7.230          0.1815E+06
  21806      1    126     56       7.690          0.1815E+06
  21807      1    126     57       8.270          0.1815E+06
  21808      1    126     58       8.060          0.1815E+06
  21809      1    126     59       8.430          0.1815E+06
  21810      1    126     60       8.850          0.1815E+06
  21811      1    126     61       9.220          0.1815E+06
  21812      1    126     62       9.470          0.1815E+06
  21813      1    126     63       9.640          0.1815E+06
  21814      1    126     64       9.500          0.1815E+06
  21815      1    126     65       9.840          0.1815E+06
  21816      1    126     66       9.810          0.1815E+06
  21817      1    126     67       9.850          0.1815E+06
  21818      1    126     68       10.11          0.1815E+06
  21819      1    126     69       9.640          0.1815E+06
  21820      1    126     70       9.430          0.1815E+06
  21821      1    126     71       9.320          0.1815E+06
  21822      1    126     72       9.390          0.1815E+06
  21823      1    126     73       9.190          0.1815E+06
  21824      1    126     74       8.900          0.1815E+06
  21825      1    126     75       8.720          0.1815E+06
  21826      1    126     76       8.440          0.1815E+06
  21827      1    126     77       7.860          0.1815E+06
  21828      1    126     78       6.570          0.1815E+06
  21829      1    126     79       6.150          0.1815E+06
  21830      1    126     80       6.210          0.1815E+06
  21831      1    126     81       6.400          0.1815E+06
  21832      1    126     82       5.940          0.1815E+06
  21833      1    126     83       5.820          0.1815E+06
  21834      1    126     84       5.880          0.1815E+06
  21835      1    126     85       5.530          0.1815E+06
  21836      1    126     86       6.760          0.1815E+06
  21837      1    126     87       8.130          0.1815E+06
  21838      1    126     88       9.460          0.1815E+06
  21839      1    126     89       10.72          0.1815E+06
  21840      1    126     90       11.61          0.1815E+06
  21841      1    126     91       11.94          0.1815E+06
  21842      1    126     92       12.27          0.1815E+06
  21843      1    126     93       12.64          0.1815E+06
  21844      1    126     94       13.18          0.1815E+06
  21845      1    126     95       13.85          0.1815E+06
  21846      1    126     96       13.51          0.1815E+06
  21847      1    126     97       13.98          0.1815E+06
  21848      1    126     98       14.61          0.1815E+06
  21849      1    126     99       14.89          0.1815E+06
  21850      1    126    100       14.22          0.1815E+06
  21851      1    126    101       13.43          0.1815E+06
  21852      1    126    102       12.52          0.1815E+06
  21853      1    126    103       11.73          0.1815E+06
  21854      1    126    104       11.98          0.1815E+06
  21855      1    126    105       12.72          0.1815E+06
  21856      1    126    106       14.05          0.1815E+06
  21857      1    126    107       15.30          0.1815E+06
  21858      1    126    108       15.90          0.1815E+06
  21859      1    126    109       16.80          0.1815E+06
  21860      1    126    110       16.80          0.1815E+06
  21861      1    126    111       20.50          0.1815E+06
  21862      1    126    112       25.20          0.1815E+06
  21863      1    126    113       27.00          0.1815E+06
  21864      1    126    114       30.10          0.1815E+06
  21865      1    126    115       32.80          0.1815E+06
  21866      1    126    116       33.10          0.1815E+06
  21867      1    126    117       32.40          0.1815E+06
  21868      1    126    118       31.80          0.1815E+06
  21869      1    126    119       31.50          0.1815E+06
  21870      1    126    120       31.80          0.1815E+06
  21871      1    126    121       32.70          0.1815E+06
  21872      1    126    122       33.40          0.1815E+06
  21873      1    126    123       33.80          0.1815E+06
  21874      1    126    124       34.10          0.1815E+06
  21875      1    126    125       34.60          0.1815E+06
  21876      1    126    126       35.50          0.1815E+06
  21877      1    126    127       36.40          0.1815E+06
  21878      1    126    128       37.30          0.1815E+06
  21879      1    126    129       37.70          0.1815E+06
  21880      1    126    130       37.60          0.1815E+06
  21881      1    126    131       37.30          0.1815E+06
  21882      1    126    132       37.10          0.1815E+06
  21883      1    126    133       37.00          0.1815E+06
  21884      1    126    134       36.70          0.1815E+06
  21885      1    126    135       36.30          0.1815E+06
  21886      1    126    136       35.40          0.1815E+06
  21887      1    126    137       34.30          0.1815E+06
  21888      1    126    138       33.70          0.1815E+06
  21889      1    126    139       34.90          0.1815E+06
  21890      1    126    140       36.40          0.1815E+06
  21891      1    126    141       36.40          0.1815E+06
  21892      1    126    142       36.30          0.1815E+06
  21893      1    126    143       36.70          0.1815E+06
  21894      1    126    144       36.80          0.1815E+06
  21895      1    126    145       36.30          0.1815E+06
  21896      1    126    146       36.10          0.1815E+06
  21897      1    126    147       34.70          0.1815E+06
  21898      1    126    148       32.30          0.1815E+06
  21899      1    126    149       28.70          0.1815E+06
  21900      1    126    150       28.50          0.1815E+06
  21901      1    126    151       31.90          0.1815E+06
  21902      1    126    152       35.60          0.1815E+06
  21903      1    126    153       36.20          0.1815E+06
  21904      1    126    154       36.00          0.1815E+06
  21905      1    126    155       35.20          0.1815E+06
  21906      1    126    156       35.80          0.1815E+06
  21907      1    126    157       35.90          0.1815E+06
  21908      1    126    158       35.60          0.1815E+06
  21909      1    126    159       36.00          0.1815E+06
  21910      1    126    160       36.30          0.1815E+06
  21911      1    126    161       36.80          0.1815E+06
  21912      1    126    162       36.70          0.1815E+06
  21913      1    126    163       36.10          0.1815E+06
  21914      1    126    164       36.10          0.1815E+06
  21915      1    126    165       36.90          0.1815E+06
  21916      1    126    166       38.30          0.1815E+06
  21917      1    126    167       39.80          0.1815E+06
  21918      1    126    168       40.90          0.1815E+06
  21919      1    126    169       41.90          0.1815E+06
  21920      1    126    170       43.60          0.1815E+06
  21921      1    126    171       45.70          0.1815E+06
  21922      1    126    172       46.90          0.1815E+06
  21923      1    126    173       48.00          0.1815E+06
  21924      1    126    174       49.10          0.1815E+06
  21925      1    127      1      -12.19          0.1815E+06
  21926      1    127      2      -12.15          0.1815E+06
  21927      1    127      3      -12.15          0.1815E+06
  21928      1    127      4      -12.35          0.1815E+06
  21929      1    127      5      -12.28          0.1815E+06
  21930      1    127      6      -11.65          0.1815E+06
  21931      1    127      7      -13.05          0.1815E+06
  21932      1    127      8      -13.25          0.1815E+06
  21933      1    127      9      -13.25          0.1815E+06
  21934      1    127     10      -13.05          0.1815E+06
  21935      1    127     11      -13.15          0.1815E+06
  21936      1    127     12      -14.05          0.1815E+06
  21937      1    127     13      -13.95          0.1815E+06
  21938      1    127     14      -13.35          0.1815E+06
  21939      1    127     15      -13.35          0.1815E+06
  21940      1    127     16      -12.95          0.1815E+06
  21941      1    127     17      -12.75          0.1815E+06
  21942      1    127     18      -12.85          0.1815E+06
  21943      1    127     19      -13.25          0.1815E+06
  21944      1    127     20      -12.55          0.1815E+06
  21945      1    127     21      -12.55          0.1815E+06
  21946      1    127     22      -11.10          0.1815E+06
  21947      1    127     23      -11.05          0.1815E+06
  21948      1    127     24      -11.13          0.1815E+06
  21949      1    127     25      -10.75          0.1815E+06
  21950      1    127     26      -10.75          0.1815E+06
  21951      1    127     27      -9.750          0.1815E+06
  21952      1    127     28      -10.45          0.1815E+06
  21953      1    127     29      -9.850          0.1815E+06
  21954      1    127     30      -9.950          0.1815E+06
  21955      1    127     31      -9.950          0.1815E+06
  21956      1    127     32      -9.950          0.1815E+06
  21957      1    127     33      -9.950          0.1815E+06
  21958      1    127     34      -8.450          0.1815E+06
  21959      1    127     35      -7.990          0.1815E+06
  21960      1    127     36      -7.350          0.1815E+06
  21961      1    127     37      -7.650          0.1815E+06
  21962      1    127     38      -7.650          0.1815E+06
  21963      1    127     39      -6.350          0.1815E+06
  21964      1    127     40      -5.830          0.1815E+06
  21965      1    127     41      -5.680          0.1815E+06
  21966      1    127     42      -5.560          0.1815E+06
  21967      1    127     43      -5.040          0.1815E+06
  21968      1    127     44      -5.040          0.1815E+06
  21969      1    127     45      -4.840          0.1815E+06
  21970      1    127     46      -5.040          0.1815E+06
  21971      1    127     47      -5.140          0.1815E+06
  21972      1    127     48      -4.940          0.1815E+06
  21973      1    127     49      -4.940          0.1815E+06
  21974      1    127     50      0.5500          0.1815E+06
  21975      1    127     51       1.560          0.1815E+06
  21976      1    127     52       3.560          0.1815E+06
  21977      1    127     53       5.570          0.1815E+06
  21978      1    127     54       5.400          0.1815E+06
  21979      1    127     55       8.210          0.1815E+06
  21980      1    127     56       7.460          0.1815E+06
  21981      1    127     57       7.710          0.1815E+06
  21982      1    127     58       8.270          0.1815E+06
  21983      1    127     59       8.960          0.1815E+06
  21984      1    127     60       8.890          0.1815E+06
  21985      1    127     61       9.220          0.1815E+06
  21986      1    127     62       9.500          0.1815E+06
  21987      1    127     63       9.310          0.1815E+06
  21988      1    127     64       9.680          0.1815E+06
  21989      1    127     65       9.680          0.1815E+06
  21990      1    127     66       9.810          0.1815E+06
  21991      1    127     67       9.600          0.1815E+06
  21992      1    127     68       9.720          0.1815E+06
  21993      1    127     69       9.430          0.1815E+06
  21994      1    127     70       9.440          0.1815E+06
  21995      1    127     71       9.270          0.1815E+06
  21996      1    127     72       9.430          0.1815E+06
  21997      1    127     73       9.210          0.1815E+06
  21998      1    127     74       9.180          0.1815E+06
  21999      1    127     75       8.940          0.1815E+06
  22000      1    127     76       8.520          0.1815E+06
  22001      1    127     77       7.670          0.1815E+06
  22002      1    127     78       6.570          0.1815E+06
  22003      1    127     79       6.090          0.1815E+06
  22004      1    127     80       6.110          0.1815E+06
  22005      1    127     81       6.010          0.1815E+06
  22006      1    127     82       5.900          0.1815E+06
  22007      1    127     83       6.070          0.1815E+06
  22008      1    127     84       5.780          0.1815E+06
  22009      1    127     85       5.550          0.1815E+06
  22010      1    127     86       6.750          0.1815E+06
  22011      1    127     87       8.140          0.1815E+06
  22012      1    127     88       9.840          0.1815E+06
  22013      1    127     89       11.10          0.1815E+06
  22014      1    127     90       12.32          0.1815E+06
  22015      1    127     91       12.42          0.1815E+06
  22016      1    127     92       12.36          0.1815E+06
  22017      1    127     93       14.01          0.1815E+06
  22018      1    127     94       13.56          0.1815E+06
  22019      1    127     95       13.84          0.1815E+06
  22020      1    127     96       14.35          0.1815E+06
  22021      1    127     97       14.93          0.1815E+06
  22022      1    127     98       15.42          0.1815E+06
  22023      1    127     99       14.52          0.1815E+06
  22024      1    127    100       13.32          0.1815E+06
  22025      1    127    101       11.89          0.1815E+06
  22026      1    127    102       10.38          0.1815E+06
  22027      1    127    103       10.84          0.1815E+06
  22028      1    127    104       11.31          0.1815E+06
  22029      1    127    105       11.97          0.1815E+06
  22030      1    127    106       13.18          0.1815E+06
  22031      1    127    107       14.44          0.1815E+06
  22032      1    127    108       15.65          0.1815E+06
  22033      1    127    109       19.10          0.1815E+06
  22034      1    127    110       22.60          0.1815E+06
  22035      1    127    111       21.40          0.1815E+06
  22036      1    127    112       20.10          0.1815E+06
  22037      1    127    113       25.10          0.1815E+06
  22038      1    127    114       28.60          0.1815E+06
  22039      1    127    115       31.40          0.1815E+06
  22040      1    127    116       32.60          0.1815E+06
  22041      1    127    117       32.00          0.1815E+06
  22042      1    127    118       31.20          0.1815E+06
  22043      1    127    119       31.10          0.1815E+06
  22044      1    127    120       31.90          0.1815E+06
  22045      1    127    121       32.80          0.1815E+06
  22046      1    127    122       33.50          0.1815E+06
  22047      1    127    123       33.90          0.1815E+06
  22048      1    127    124       34.10          0.1815E+06
  22049      1    127    125       35.10          0.1815E+06
  22050      1    127    126       36.20          0.1815E+06
  22051      1    127    127       36.80          0.1815E+06
  22052      1    127    128       37.20          0.1815E+06
  22053      1    127    129       37.20          0.1815E+06
  22054      1    127    130       36.90          0.1815E+06
  22055      1    127    131       36.60          0.1815E+06
  22056      1    127    132       36.50          0.1815E+06
  22057      1    127    133       36.60          0.1815E+06
  22058      1    127    134       36.50          0.1815E+06
  22059      1    127    135       36.00          0.1815E+06
  22060      1    127    136       35.20          0.1815E+06
  22061      1    127    137       33.80          0.1815E+06
  22062      1    127    138       32.80          0.1815E+06
  22063      1    127    139       33.60          0.1815E+06
  22064      1    127    140       36.40          0.1815E+06
  22065      1    127    141       36.60          0.1815E+06
  22066      1    127    142       36.10          0.1815E+06
  22067      1    127    143       36.20          0.1815E+06
  22068      1    127    144       36.40          0.1815E+06
  22069      1    127    145       36.60          0.1815E+06
  22070      1    127    146       36.80          0.1815E+06
  22071      1    127    147       36.80          0.1815E+06
  22072      1    127    148       35.50          0.1815E+06
  22073      1    127    149       32.10          0.1815E+06
  22074      1    127    150       28.80          0.1815E+06
  22075      1    127    151       27.00          0.1815E+06
  22076      1    127    152       33.10          0.1815E+06
  22077      1    127    153       34.90          0.1815E+06
  22078      1    127    154       33.30          0.1815E+06
  22079      1    127    155       31.20          0.1815E+06
  22080      1    127    156       32.20          0.1815E+06
  22081      1    127    157       33.50          0.1815E+06
  22082      1    127    158       34.40          0.1815E+06
  22083      1    127    159       35.20          0.1815E+06
  22084      1    127    160       36.10          0.1815E+06
  22085      1    127    161       36.20          0.1815E+06
  22086      1    127    162       35.90          0.1815E+06
  22087      1    127    163       35.30          0.1815E+06
  22088      1    127    164       35.10          0.1815E+06
  22089      1    127    165       36.10          0.1815E+06
  22090      1    127    166       38.00          0.1815E+06
  22091      1    127    167       40.40          0.1815E+06
  22092      1    127    168       41.90          0.1815E+06
  22093      1    127    169       42.80          0.1815E+06
  22094      1    127    170       43.80          0.1815E+06
  22095      1    127    171       45.20          0.1815E+06
  22096      1    127    172       46.00          0.1815E+06
  22097      1    127    173       45.80          0.1815E+06
  22098      1    127    174       46.90          0.1815E+06
  22099      1    128      1      -12.19          0.1815E+06
  22100      1    128      2      -12.24          0.1815E+06
  22101      1    128      3      -12.24          0.1815E+06
  22102      1    128      4      -12.55          0.1815E+06
  22103      1    128      5      -13.05          0.1815E+06
  22104      1    128      6      -12.45          0.1815E+06
  22105      1    128      7      -12.75          0.1815E+06
  22106      1    128      8      -12.61          0.1815E+06
  22107      1    128      9      -12.61          0.1815E+06
  22108      1    128     10      -13.65          0.1815E+06
  22109      1    128     11      -13.95          0.1815E+06
  22110      1    128     12      -14.15          0.1815E+06
  22111      1    128     13      -13.46          0.1815E+06
  22112      1    128     14      -13.36          0.1815E+06
  22113      1    128     15      -13.36          0.1815E+06
  22114      1    128     16      -13.16          0.1815E+06
  22115      1    128     17      -13.06          0.1815E+06
  22116      1    128     18      -13.66          0.1815E+06
  22117      1    128     19      -13.58          0.1815E+06
  22118      1    128     20      -13.03          0.1815E+06
  22119      1    128     21      -13.03          0.1815E+06
  22120      1    128     22      -11.10          0.1815E+06
  22121      1    128     23      -11.05          0.1815E+06
  22122      1    128     24      -11.13          0.1815E+06
  22123      1    128     25      -10.75          0.1815E+06
  22124      1    128     26      -10.75          0.1815E+06
  22125      1    128     27      -9.350          0.1815E+06
  22126      1    128     28      -9.560          0.1815E+06
  22127      1    128     29      -9.670          0.1815E+06
  22128      1    128     30      -9.470          0.1815E+06
  22129      1    128     31      -9.770          0.1815E+06
  22130      1    128     32      -9.770          0.1815E+06
  22131      1    128     33      -9.850          0.1815E+06
  22132      1    128     34      -9.150          0.1815E+06
  22133      1    128     35      -8.550          0.1815E+06
  22134      1    128     36      -7.330          0.1815E+06
  22135      1    128     37      -7.190          0.1815E+06
  22136      1    128     38      -7.190          0.1815E+06
  22137      1    128     39      -6.390          0.1815E+06
  22138      1    128     40      -5.850          0.1815E+06
  22139      1    128     41      -5.850          0.1815E+06
  22140      1    128     42      -5.850          0.1815E+06
  22141      1    128     43      -5.250          0.1815E+06
  22142      1    128     44      -5.250          0.1815E+06
  22143      1    128     45      -5.050          0.1815E+06
  22144      1    128     46      -5.040          0.1815E+06
  22145      1    128     47      -5.140          0.1815E+06
  22146      1    128     48      -3.240          0.1815E+06
  22147      1    128     49      -3.240          0.1815E+06
  22148      1    128     50      0.5500          0.1815E+06
  22149      1    128     51       1.560          0.1815E+06
  22150      1    128     52       3.570          0.1815E+06
  22151      1    128     53       7.570          0.1815E+06
  22152      1    128     54       4.900          0.1815E+06
  22153      1    128     55       7.760          0.1815E+06
  22154      1    128     56       7.590          0.1815E+06
  22155      1    128     57       7.590          0.1815E+06
  22156      1    128     58       8.420          0.1815E+06
  22157      1    128     59       8.610          0.1815E+06
  22158      1    128     60       8.710          0.1815E+06
  22159      1    128     61       9.210          0.1815E+06
  22160      1    128     62       9.260          0.1815E+06
  22161      1    128     63       9.630          0.1815E+06
  22162      1    128     64       9.850          0.1815E+06
  22163      1    128     65       9.820          0.1815E+06
  22164      1    128     66       9.560          0.1815E+06
  22165      1    128     67       9.690          0.1815E+06
  22166      1    128     68       9.730          0.1815E+06
  22167      1    128     69       9.570          0.1815E+06
  22168      1    128     70       9.600          0.1815E+06
  22169      1    128     71       9.310          0.1815E+06
  22170      1    128     72       9.430          0.1815E+06
  22171      1    128     73       9.170          0.1815E+06
  22172      1    128     74       9.850          0.1815E+06
  22173      1    128     75       10.14          0.1815E+06
  22174      1    128     76       8.900          0.1815E+06
  22175      1    128     77       7.420          0.1815E+06
  22176      1    128     78       6.690          0.1815E+06
  22177      1    128     79       6.320          0.1815E+06
  22178      1    128     80       6.210          0.1815E+06
  22179      1    128     81       6.190          0.1815E+06
  22180      1    128     82       6.070          0.1815E+06
  22181      1    128     83       6.170          0.1815E+06
  22182      1    128     84       5.820          0.1815E+06
  22183      1    128     85       5.480          0.1815E+06
  22184      1    128     86       6.550          0.1815E+06
  22185      1    128     87       7.940          0.1815E+06
  22186      1    128     88       9.390          0.1815E+06
  22187      1    128     89       10.88          0.1815E+06
  22188      1    128     90       11.56          0.1815E+06
  22189      1    128     91       12.01          0.1815E+06
  22190      1    128     92       12.35          0.1815E+06
  22191      1    128     93       13.27          0.1815E+06
  22192      1    128     94       13.02          0.1815E+06
  22193      1    128     95       13.43          0.1815E+06
  22194      1    128     96       13.88          0.1815E+06
  22195      1    128     97       14.40          0.1815E+06
  22196      1    128     98       14.75          0.1815E+06
  22197      1    128     99       14.39          0.1815E+06
  22198      1    128    100       12.42          0.1815E+06
  22199      1    128    101       9.670          0.1815E+06
  22200      1    128    102       9.970          0.1815E+06
  22201      1    128    103       10.44          0.1815E+06
  22202      1    128    104       12.36          0.1815E+06
  22203      1    128    105       13.39          0.1815E+06
  22204      1    128    106       14.34          0.1815E+06
  22205      1    128    107       16.10          0.1815E+06
  22206      1    128    108       18.93          0.1815E+06
  22207      1    128    109       23.55          0.1815E+06
  22208      1    128    110       26.90          0.1815E+06
  22209      1    128    111       26.60          0.1815E+06
  22210      1    128    112       23.30          0.1815E+06
  22211      1    128    113       25.60          0.1815E+06
  22212      1    128    114       28.50          0.1815E+06
  22213      1    128    115       31.00          0.1815E+06
  22214      1    128    116       31.30          0.1815E+06
  22215      1    128    117       30.90          0.1815E+06
  22216      1    128    118       30.30          0.1815E+06
  22217      1    128    119       30.70          0.1815E+06
  22218      1    128    120       32.50          0.1815E+06
  22219      1    128    121       33.40          0.1815E+06
  22220      1    128    122       33.80          0.1815E+06
  22221      1    128    123       33.90          0.1815E+06
  22222      1    128    124       34.40          0.1815E+06
  22223      1    128    125       35.80          0.1815E+06
  22224      1    128    126       36.60          0.1815E+06
  22225      1    128    127       36.80          0.1815E+06
  22226      1    128    128       36.80          0.1815E+06
  22227      1    128    129       36.50          0.1815E+06
  22228      1    128    130       36.20          0.1815E+06
  22229      1    128    131       36.00          0.1815E+06
  22230      1    128    132       36.00          0.1815E+06
  22231      1    128    133       36.20          0.1815E+06
  22232      1    128    134       36.30          0.1815E+06
  22233      1    128    135       35.80          0.1815E+06
  22234      1    128    136       34.70          0.1815E+06
  22235      1    128    137       33.30          0.1815E+06
  22236      1    128    138       32.10          0.1815E+06
  22237      1    128    139       32.70          0.1815E+06
  22238      1    128    140       35.70          0.1815E+06
  22239      1    128    141       36.80          0.1815E+06
  22240      1    128    142       36.20          0.1815E+06
  22241      1    128    143       36.00          0.1815E+06
  22242      1    128    144       36.20          0.1815E+06
  22243      1    128    145       36.20          0.1815E+06
  22244      1    128    146       36.20          0.1815E+06
  22245      1    128    147       36.30          0.1815E+06
  22246      1    128    148       35.90          0.1815E+06
  22247      1    128    149       35.00          0.1815E+06
  22248      1    128    150       34.30          0.1815E+06
  22249      1    128    151       27.40          0.1815E+06
  22250      1    128    152       29.50          0.1815E+06
  22251      1    128    153       31.60          0.1815E+06
  22252      1    128    154       29.00          0.1815E+06
  22253      1    128    155       30.20          0.1815E+06
  22254      1    128    156       30.20          0.1815E+06
  22255      1    128    157       33.40          0.1815E+06
  22256      1    128    158       34.90          0.1815E+06
  22257      1    128    159       35.50          0.1815E+06
  22258      1    128    160       36.00          0.1815E+06
  22259      1    128    161       35.60          0.1815E+06
  22260      1    128    162       35.00          0.1815E+06
  22261      1    128    163       34.90          0.1815E+06
  22262      1    128    164       35.40          0.1815E+06
  22263      1    128    165       36.30          0.1815E+06
  22264      1    128    166       37.90          0.1815E+06
  22265      1    128    167       39.20          0.1815E+06
  22266      1    128    168       40.60          0.1815E+06
  22267      1    128    169       43.10          0.1815E+06
  22268      1    128    170       43.80          0.1815E+06
  22269      1    128    171       44.50          0.1815E+06
  22270      1    128    172       44.90          0.1815E+06
  22271      1    128    173       44.90          0.1815E+06
  22272      1    128    174       46.30          0.1815E+06
  22273      1    129      1      -12.19          0.1815E+06
  22274      1    129      2      -12.24          0.1815E+06
  22275      1    129      3      -12.24          0.1815E+06
  22276      1    129      4      -12.55          0.1815E+06
  22277      1    129      5      -13.05          0.1815E+06
  22278      1    129      6      -12.45          0.1815E+06
  22279      1    129      7      -12.75          0.1815E+06
  22280      1    129      8      -12.61          0.1815E+06
  22281      1    129      9      -12.61          0.1815E+06
  22282      1    129     10      -13.65          0.1815E+06
  22283      1    129     11      -13.95          0.1815E+06
  22284      1    129     12      -14.15          0.1815E+06
  22285      1    129     13      -13.46          0.1815E+06
  22286      1    129     14      -13.36          0.1815E+06
  22287      1    129     15      -13.36          0.1815E+06
  22288      1    129     16      -13.16          0.1815E+06
  22289      1    129     17      -13.06          0.1815E+06
  22290      1    129     18      -13.66          0.1815E+06
  22291      1    129     19      -13.58          0.1815E+06
  22292      1    129     20      -13.03          0.1815E+06
  22293      1    129     21      -13.03          0.1815E+06
  22294      1    129     22      -11.10          0.1815E+06
  22295      1    129     23      -11.05          0.1815E+06
  22296      1    129     24      -11.13          0.1815E+06
  22297      1    129     25      -10.75          0.1815E+06
  22298      1    129     26      -10.75          0.1815E+06
  22299      1    129     27      -9.350          0.1815E+06
  22300      1    129     28      -9.560          0.1815E+06
  22301      1    129     29      -9.670          0.1815E+06
  22302      1    129     30      -9.470          0.1815E+06
  22303      1    129     31      -9.770          0.1815E+06
  22304      1    129     32      -9.770          0.1815E+06
  22305      1    129     33      -9.850          0.1815E+06
  22306      1    129     34      -9.150          0.1815E+06
  22307      1    129     35      -8.550          0.1815E+06
  22308      1    129     36      -7.330          0.1815E+06
  22309      1    129     37      -7.190          0.1815E+06
  22310      1    129     38      -7.190          0.1815E+06
  22311      1    129     39      -6.390          0.1815E+06
  22312      1    129     40      -5.850          0.1815E+06
  22313      1    129     41      -5.850          0.1815E+06
  22314      1    129     42      -5.850          0.1815E+06
  22315      1    129     43      -5.250          0.1815E+06
  22316      1    129     44      -5.250          0.1815E+06
  22317      1    129     45      -5.050          0.1815E+06
  22318      1    129     46      -5.040          0.1815E+06
  22319      1    129     47      -5.140          0.1815E+06
  22320      1    129     48      -3.240          0.1815E+06
  22321      1    129     49      -3.240          0.1815E+06
  22322      1    129     50      0.5500          0.1815E+06
  22323      1    129     51       1.560          0.1815E+06
  22324      1    129     52       3.570          0.1815E+06
  22325      1    129     53       7.570          0.1815E+06
  22326      1    129     54       4.730          0.1815E+06
  22327      1    129     55       9.780          0.1815E+06
  22328      1    129     56       7.670          0.1815E+06
  22329      1    129     57       7.670          0.1815E+06
  22330      1    129     58       8.770          0.1815E+06
  22331      1    129     59       8.640          0.1815E+06
  22332      1    129     60       9.060          0.1815E+06
  22333      1    129     61       8.970          0.1815E+06
  22334      1    129     62       9.630          0.1815E+06
  22335      1    129     63       9.510          0.1815E+06
  22336      1    129     64       9.640          0.1815E+06
  22337      1    129     65       9.590          0.1815E+06
  22338      1    129     66       9.650          0.1815E+06
  22339      1    129     67       9.680          0.1815E+06
  22340      1    129     68       9.470          0.1815E+06
  22341      1    129     69       10.14          0.1815E+06
  22342      1    129     70       9.680          0.1815E+06
  22343      1    129     71       9.880          0.1815E+06
  22344      1    129     72       9.590          0.1815E+06
  22345      1    129     73       9.470          0.1815E+06
  22346      1    129     74       9.440          0.1815E+06
  22347      1    129     75       9.510          0.1815E+06
  22348      1    129     76       9.010          0.1815E+06
  22349      1    129     77       7.960          0.1815E+06
  22350      1    129     78       6.380          0.1815E+06
  22351      1    129     79       6.090          0.1815E+06
  22352      1    129     80       6.340          0.1815E+06
  22353      1    129     81       6.190          0.1815E+06
  22354      1    129     82       6.050          0.1815E+06
  22355      1    129     83       6.250          0.1815E+06
  22356      1    129     84       5.590          0.1815E+06
  22357      1    129     85       5.960          0.1815E+06
  22358      1    129     86       6.110          0.1815E+06
  22359      1    129     87       7.250          0.1815E+06
  22360      1    129     88       8.750          0.1815E+06
  22361      1    129     89       9.970          0.1815E+06
  22362      1    129     90       11.21          0.1815E+06
  22363      1    129     91       11.36          0.1815E+06
  22364      1    129     92       11.51          0.1815E+06
  22365      1    129     93       12.02          0.1815E+06
  22366      1    129     94       12.57          0.1815E+06
  22367      1    129     95       13.43          0.1815E+06
  22368      1    129     96       13.96          0.1815E+06
  22369      1    129     97       14.18          0.1815E+06
  22370      1    129     98       13.97          0.1815E+06
  22371      1    129     99       12.88          0.1815E+06
  22372      1    129    100       10.19          0.1815E+06
  22373      1    129    101       9.670          0.1815E+06
  22374      1    129    102       10.93          0.1815E+06
  22375      1    129    103       12.56          0.1815E+06
  22376      1    129    104       14.72          0.1815E+06
  22377      1    129    105       16.87          0.1815E+06
  22378      1    129    106       18.03          0.1815E+06
  22379      1    129    107       20.01          0.1815E+06
  22380      1    129    108       21.46          0.1815E+06
  22381      1    129    109       24.86          0.1815E+06
  22382      1    129    110       27.06          0.1815E+06
  22383      1    129    111       27.42          0.1815E+06
  22384      1    129    112       25.80          0.1815E+06
  22385      1    129    113       24.40          0.1815E+06
  22386      1    129    114       24.80          0.1815E+06
  22387      1    129    115       25.50          0.1815E+06
  22388      1    129    116       29.10          0.1815E+06
  22389      1    129    117       29.80          0.1815E+06
  22390      1    129    118       30.60          0.1815E+06
  22391      1    129    119       31.10          0.1815E+06
  22392      1    129    120       33.00          0.1815E+06
  22393      1    129    121       33.80          0.1815E+06
  22394      1    129    122       33.90          0.1815E+06
  22395      1    129    123       33.90          0.1815E+06
  22396      1    129    124       35.00          0.1815E+06
  22397      1    129    125       36.10          0.1815E+06
  22398      1    129    126       36.50          0.1815E+06
  22399      1    129    127       36.50          0.1815E+06
  22400      1    129    128       36.40          0.1815E+06
  22401      1    129    129       35.90          0.1815E+06
  22402      1    129    130       35.40          0.1815E+06
  22403      1    129    131       34.90          0.1815E+06
  22404      1    129    132       34.90          0.1815E+06
  22405      1    129    133       35.70          0.1815E+06
  22406      1    129    134       36.00          0.1815E+06
  22407      1    129    135       35.90          0.1815E+06
  22408      1    129    136       34.80          0.1815E+06
  22409      1    129    137       33.60          0.1815E+06
  22410      1    129    138       32.00          0.1815E+06
  22411      1    129    139       30.60          0.1815E+06
  22412      1    129    140       33.70          0.1815E+06
  22413      1    129    141       36.40          0.1815E+06
  22414      1    129    142       36.10          0.1815E+06
  22415      1    129    143       35.90          0.1815E+06
  22416      1    129    144       36.00          0.1815E+06
  22417      1    129    145       36.00          0.1815E+06
  22418      1    129    146       35.90          0.1815E+06
  22419      1    129    147       35.80          0.1815E+06
  22420      1    129    148       35.90          0.1815E+06
  22421      1    129    149       36.00          0.1815E+06
  22422      1    129    150       35.50          0.1815E+06
  22423      1    129    151       28.70          0.1815E+06
  22424      1    129    152       25.90          0.1815E+06
  22425      1    129    153       25.00          0.1815E+06
  22426      1    129    154       30.00          0.1815E+06
  22427      1    129    155       32.20          0.1815E+06
  22428      1    129    156       30.40          0.1815E+06
  22429      1    129    157       34.40          0.1815E+06
  22430      1    129    158       35.10          0.1815E+06
  22431      1    129    159       35.00          0.1815E+06
  22432      1    129    160       34.60          0.1815E+06
  22433      1    129    161       34.60          0.1815E+06
  22434      1    129    162       34.60          0.1815E+06
  22435      1    129    163       35.10          0.1815E+06
  22436      1    129    164       37.20          0.1815E+06
  22437      1    129    165       38.20          0.1815E+06
  22438      1    129    166       38.20          0.1815E+06
  22439      1    129    167       38.60          0.1815E+06
  22440      1    129    168       39.70          0.1815E+06
  22441      1    129    169       41.30          0.1815E+06
  22442      1    129    170       42.60          0.1815E+06
  22443      1    129    171       43.30          0.1815E+06
  22444      1    129    172       43.90          0.1815E+06
  22445      1    129    173       45.00          0.1815E+06
  22446      1    129    174       46.70          0.1815E+06
  22447      1    130      1      -12.25          0.1815E+06
  22448      1    130      2      -12.25          0.1815E+06
  22449      1    130      3      -12.25          0.1815E+06
  22450      1    130      4      -12.70          0.1815E+06
  22451      1    130      5      -13.07          0.1815E+06
  22452      1    130      6      -13.05          0.1815E+06
  22453      1    130      7      -13.26          0.1815E+06
  22454      1    130      8      -12.66          0.1815E+06
  22455      1    130      9      -12.66          0.1815E+06
  22456      1    130     10      -13.16          0.1815E+06
  22457      1    130     11      -14.66          0.1815E+06
  22458      1    130     12      -14.06          0.1815E+06
  22459      1    130     13      -13.16          0.1815E+06
  22460      1    130     14      -13.36          0.1815E+06
  22461      1    130     15      -13.36          0.1815E+06
  22462      1    130     16      -13.44          0.1815E+06
  22463      1    130     17      -13.66          0.1815E+06
  22464      1    130     18      -13.86          0.1815E+06
  22465      1    130     19      -13.58          0.1815E+06
  22466      1    130     20      -13.03          0.1815E+06
  22467      1    130     21      -13.03          0.1815E+06
  22468      1    130     22      -12.36          0.1815E+06
  22469      1    130     23      -11.66          0.1815E+06
  22470      1    130     24      -11.36          0.1815E+06
  22471      1    130     25      -10.23          0.1815E+06
  22472      1    130     26      -10.23          0.1815E+06
  22473      1    130     27      -8.360          0.1815E+06
  22474      1    130     28      -9.940          0.1815E+06
  22475      1    130     29      -10.46          0.1815E+06
  22476      1    130     30      -9.210          0.1815E+06
  22477      1    130     31      -9.860          0.1815E+06
  22478      1    130     32      -9.860          0.1815E+06
  22479      1    130     33      -10.06          0.1815E+06
  22480      1    130     34      -9.300          0.1815E+06
  22481      1    130     35      -8.160          0.1815E+06
  22482      1    130     36      -6.560          0.1815E+06
  22483      1    130     37      -6.560          0.1815E+06
  22484      1    130     38      -6.560          0.1815E+06
  22485      1    130     39      -6.350          0.1815E+06
  22486      1    130     40      -5.830          0.1815E+06
  22487      1    130     41      -5.550          0.1815E+06
  22488      1    130     42      -5.850          0.1815E+06
  22489      1    130     43      -5.250          0.1815E+06
  22490      1    130     44      -5.250          0.1815E+06
  22491      1    130     45      -5.050          0.1815E+06
  22492      1    130     46      -5.040          0.1815E+06
  22493      1    130     47      -4.650          0.1815E+06
  22494      1    130     48      -3.300          0.1815E+06
  22495      1    130     49      -3.300          0.1815E+06
  22496      1    130     50      0.5500          0.1815E+06
  22497      1    130     51       1.560          0.1815E+06
  22498      1    130     52       2.560          0.1815E+06
  22499      1    130     53       6.570          0.1815E+06
  22500      1    130     54       9.570          0.1815E+06
  22501      1    130     55       9.570          0.1815E+06
  22502      1    130     56       7.710          0.1815E+06
  22503      1    130     57       7.670          0.1815E+06
  22504      1    130     58       8.780          0.1815E+06
  22505      1    130     59       8.350          0.1815E+06
  22506      1    130     60       9.560          0.1815E+06
  22507      1    130     61       9.020          0.1815E+06
  22508      1    130     62       9.170          0.1815E+06
  22509      1    130     63       9.390          0.1815E+06
  22510      1    130     64       9.640          0.1815E+06
  22511      1    130     65       9.590          0.1815E+06
  22512      1    130     66       9.730          0.1815E+06
  22513      1    130     67       9.630          0.1815E+06
  22514      1    130     68       9.720          0.1815E+06
  22515      1    130     69       9.670          0.1815E+06
  22516      1    130     70       9.670          0.1815E+06
  22517      1    130     71       9.680          0.1815E+06
  22518      1    130     72       9.850          0.1815E+06
  22519      1    130     73       10.18          0.1815E+06
  22520      1    130     74       9.480          0.1815E+06
  22521      1    130     75       9.480          0.1815E+06
  22522      1    130     76       8.810          0.1815E+06
  22523      1    130     77       8.060          0.1815E+06
  22524      1    130     78       6.260          0.1815E+06
  22525      1    130     79       6.050          0.1815E+06
  22526      1    130     80       6.010          0.1815E+06
  22527      1    130     81       5.960          0.1815E+06
  22528      1    130     82       6.190          0.1815E+06
  22529      1    130     83       6.360          0.1815E+06
  22530      1    130     84       6.030          0.1815E+06
  22531      1    130     85       5.800          0.1815E+06
  22532      1    130     86       6.090          0.1815E+06
  22533      1    130     87       6.610          0.1815E+06
  22534      1    130     88       7.690          0.1815E+06
  22535      1    130     89       8.710          0.1815E+06
  22536      1    130     90       9.570          0.1815E+06
  22537      1    130     91       10.10          0.1815E+06
  22538      1    130     92       10.94          0.1815E+06
  22539      1    130     93       12.17          0.1815E+06
  22540      1    130     94       12.64          0.1815E+06
  22541      1    130     95       12.94          0.1815E+06
  22542      1    130     96       13.56          0.1815E+06
  22543      1    130     97       13.67          0.1815E+06
  22544      1    130     98       12.81          0.1815E+06
  22545      1    130     99       10.21          0.1815E+06
  22546      1    130    100       8.900          0.1815E+06
  22547      1    130    101       11.71          0.1815E+06
  22548      1    130    102       13.38          0.1815E+06
  22549      1    130    103       14.96          0.1815E+06
  22550      1    130    104       17.35          0.1815E+06
  22551      1    130    105       19.54          0.1815E+06
  22552      1    130    106       21.06          0.1815E+06
  22553      1    130    107       22.34          0.1815E+06
  22554      1    130    108       23.87          0.1815E+06
  22555      1    130    109       25.13          0.1815E+06
  22556      1    130    110       26.89          0.1815E+06
  22557      1    130    111       27.57          0.1815E+06
  22558      1    130    112       27.70          0.1815E+06
  22559      1    130    113       27.40          0.1815E+06
  22560      1    130    114       27.20          0.1815E+06
  22561      1    130    115       27.20          0.1815E+06
  22562      1    130    116       29.00          0.1815E+06
  22563      1    130    117       31.40          0.1815E+06
  22564      1    130    118       32.90          0.1815E+06
  22565      1    130    119       32.60          0.1815E+06
  22566      1    130    120       32.60          0.1815E+06
  22567      1    130    121       33.70          0.1815E+06
  22568      1    130    122       33.90          0.1815E+06
  22569      1    130    123       34.20          0.1815E+06
  22570      1    130    124       35.50          0.1815E+06
  22571      1    130    125       36.30          0.1815E+06
  22572      1    130    126       36.30          0.1815E+06
  22573      1    130    127       36.20          0.1815E+06
  22574      1    130    128       36.00          0.1815E+06
  22575      1    130    129       35.50          0.1815E+06
  22576      1    130    130       34.70          0.1815E+06
  22577      1    130    131       34.20          0.1815E+06
  22578      1    130    132       34.10          0.1815E+06
  22579      1    130    133       35.10          0.1815E+06
  22580      1    130    134       36.00          0.1815E+06
  22581      1    130    135       36.00          0.1815E+06
  22582      1    130    136       35.60          0.1815E+06
  22583      1    130    137       34.30          0.1815E+06
  22584      1    130    138       32.20          0.1815E+06
  22585      1    130    139       30.00          0.1815E+06
  22586      1    130    140       32.20          0.1815E+06
  22587      1    130    141       35.10          0.1815E+06
  22588      1    130    142       35.20          0.1815E+06
  22589      1    130    143       34.90          0.1815E+06
  22590      1    130    144       35.00          0.1815E+06
  22591      1    130    145       36.00          0.1815E+06
  22592      1    130    146       36.00          0.1815E+06
  22593      1    130    147       36.00          0.1815E+06
  22594      1    130    148       35.80          0.1815E+06
  22595      1    130    149       35.90          0.1815E+06
  22596      1    130    150       35.70          0.1815E+06
  22597      1    130    151       32.60          0.1815E+06
  22598      1    130    152       23.40          0.1815E+06
  22599      1    130    153       24.00          0.1815E+06
  22600      1    130    154       30.10          0.1815E+06
  22601      1    130    155       34.60          0.1815E+06
  22602      1    130    156       32.80          0.1815E+06
  22603      1    130    157       32.20          0.1815E+06
  22604      1    130    158       34.30          0.1815E+06
  22605      1    130    159       34.30          0.1815E+06
  22606      1    130    160       34.20          0.1815E+06
  22607      1    130    161       34.60          0.1815E+06
  22608      1    130    162       36.00          0.1815E+06
  22609      1    130    163       38.30          0.1815E+06
  22610      1    130    164       40.10          0.1815E+06
  22611      1    130    165       40.30          0.1815E+06
  22612      1    130    166       39.70          0.1815E+06
  22613      1    130    167       39.50          0.1815E+06
  22614      1    130    168       40.10          0.1815E+06
  22615      1    130    169       40.90          0.1815E+06
  22616      1    130    170       42.00          0.1815E+06
  22617      1    130    171       43.00          0.1815E+06
  22618      1    130    172       44.00          0.1815E+06
  22619      1    130    173       45.20          0.1815E+06
  22620      1    130    174       47.00          0.1815E+06
  22621      1    131      1      -11.00          0.1815E+06
  22622      1    131      2      -11.55          0.1815E+06
  22623      1    131      3      -11.55          0.1815E+06
  22624      1    131      4      -12.46          0.1815E+06
  22625      1    131      5      -12.86          0.1815E+06
  22626      1    131      6      -12.86          0.1815E+06
  22627      1    131      7      -13.68          0.1815E+06
  22628      1    131      8      -13.96          0.1815E+06
  22629      1    131      9      -13.96          0.1815E+06
  22630      1    131     10      -13.86          0.1815E+06
  22631      1    131     11      -14.56          0.1815E+06
  22632      1    131     12      -14.21          0.1815E+06
  22633      1    131     13      -13.16          0.1815E+06
  22634      1    131     14      -13.36          0.1815E+06
  22635      1    131     15      -13.36          0.1815E+06
  22636      1    131     16      -13.44          0.1815E+06
  22637      1    131     17      -13.66          0.1815E+06
  22638      1    131     18      -14.26          0.1815E+06
  22639      1    131     19      -13.66          0.1815E+06
  22640      1    131     20      -13.26          0.1815E+06
  22641      1    131     21      -13.26          0.1815E+06
  22642      1    131     22      -12.86          0.1815E+06
  22643      1    131     23      -13.01          0.1815E+06
  22644      1    131     24      -12.31          0.1815E+06
  22645      1    131     25      -11.86          0.1815E+06
  22646      1    131     26      -11.86          0.1815E+06
  22647      1    131     27      -12.11          0.1815E+06
  22648      1    131     28      -11.86          0.1815E+06
  22649      1    131     29      -11.37          0.1815E+06
  22650      1    131     30      -10.58          0.1815E+06
  22651      1    131     31      -10.57          0.1815E+06
  22652      1    131     32      -10.57          0.1815E+06
  22653      1    131     33      -10.66          0.1815E+06
  22654      1    131     34      -9.660          0.1815E+06
  22655      1    131     35      -8.560          0.1815E+06
  22656      1    131     36      -6.960          0.1815E+06
  22657      1    131     37      -6.550          0.1815E+06
  22658      1    131     38      -6.550          0.1815E+06
  22659      1    131     39      -6.350          0.1815E+06
  22660      1    131     40      -5.830          0.1815E+06
  22661      1    131     41      -5.550          0.1815E+06
  22662      1    131     42      -5.750          0.1815E+06
  22663      1    131     43      -5.640          0.1815E+06
  22664      1    131     44      -5.640          0.1815E+06
  22665      1    131     45      -5.210          0.1815E+06
  22666      1    131     46      -4.810          0.1815E+06
  22667      1    131     47      -4.470          0.1815E+06
  22668      1    131     48      -3.850          0.1815E+06
  22669      1    131     49      -3.850          0.1815E+06
  22670      1    131     50      0.5600          0.1815E+06
  22671      1    131     51      0.5600          0.1815E+06
  22672      1    131     52       2.560          0.1815E+06
  22673      1    131     53       5.570          0.1815E+06
  22674      1    131     54       7.570          0.1815E+06
  22675      1    131     55       7.570          0.1815E+06
  22676      1    131     56       7.210          0.1815E+06
  22677      1    131     57       7.630          0.1815E+06
  22678      1    131     58       8.270          0.1815E+06
  22679      1    131     59       8.300          0.1815E+06
  22680      1    131     60       8.780          0.1815E+06
  22681      1    131     61       9.030          0.1815E+06
  22682      1    131     62       9.230          0.1815E+06
  22683      1    131     63       9.350          0.1815E+06
  22684      1    131     64       9.680          0.1815E+06
  22685      1    131     65       10.01          0.1815E+06
  22686      1    131     66       9.680          0.1815E+06
  22687      1    131     67       10.32          0.1815E+06
  22688      1    131     68       9.800          0.1815E+06
  22689      1    131     69       9.610          0.1815E+06
  22690      1    131     70       9.730          0.1815E+06
  22691      1    131     71       10.25          0.1815E+06
  22692      1    131     72       9.920          0.1815E+06
  22693      1    131     73       9.680          0.1815E+06
  22694      1    131     74       9.530          0.1815E+06
  22695      1    131     75       9.380          0.1815E+06
  22696      1    131     76       8.880          0.1815E+06
  22697      1    131     77       8.340          0.1815E+06
  22698      1    131     78       6.840          0.1815E+06
  22699      1    131     79       6.130          0.1815E+06
  22700      1    131     80       6.030          0.1815E+06
  22701      1    131     81       6.050          0.1815E+06
  22702      1    131     82       6.250          0.1815E+06
  22703      1    131     83       6.030          0.1815E+06
  22704      1    131     84       6.050          0.1815E+06
  22705      1    131     85       5.820          0.1815E+06
  22706      1    131     86       5.760          0.1815E+06
  22707      1    131     87       6.090          0.1815E+06
  22708      1    131     88       6.900          0.1815E+06
  22709      1    131     89       7.880          0.1815E+06
  22710      1    131     90       8.980          0.1815E+06
  22711      1    131     91       9.840          0.1815E+06
  22712      1    131     92       11.01          0.1815E+06
  22713      1    131     93       11.57          0.1815E+06
  22714      1    131     94       11.60          0.1815E+06
  22715      1    131     95       12.72          0.1815E+06
  22716      1    131     96       13.21          0.1815E+06
  22717      1    131     97       12.50          0.1815E+06
  22718      1    131     98       11.02          0.1815E+06
  22719      1    131     99       8.600          0.1815E+06
  22720      1    131    100       10.60          0.1815E+06
  22721      1    131    101       12.85          0.1815E+06
  22722      1    131    102       15.01          0.1815E+06
  22723      1    131    103       16.57          0.1815E+06
  22724      1    131    104       18.50          0.1815E+06
  22725      1    131    105       20.25          0.1815E+06
  22726      1    131    106       22.04          0.1815E+06
  22727      1    131    107       23.53          0.1815E+06
  22728      1    131    108       24.09          0.1815E+06
  22729      1    131    109       25.46          0.1815E+06
  22730      1    131    110       26.35          0.1815E+06
  22731      1    131    111       27.14          0.1815E+06
  22732      1    131    112       28.36          0.1815E+06
  22733      1    131    113       29.88          0.1815E+06
  22734      1    131    114       30.90          0.1815E+06
  22735      1    131    115       31.10          0.1815E+06
  22736      1    131    116       31.70          0.1815E+06
  22737      1    131    117       32.90          0.1815E+06
  22738      1    131    118       33.50          0.1815E+06
  22739      1    131    119       32.80          0.1815E+06
  22740      1    131    120       32.50          0.1815E+06
  22741      1    131    121       33.30          0.1815E+06
  22742      1    131    122       33.90          0.1815E+06
  22743      1    131    123       35.10          0.1815E+06
  22744      1    131    124       36.10          0.1815E+06
  22745      1    131    125       36.20          0.1815E+06
  22746      1    131    126       36.00          0.1815E+06
  22747      1    131    127       35.70          0.1815E+06
  22748      1    131    128       35.20          0.1815E+06
  22749      1    131    129       34.80          0.1815E+06
  22750      1    131    130       34.20          0.1815E+06
  22751      1    131    131       33.70          0.1815E+06
  22752      1    131    132       33.60          0.1815E+06
  22753      1    131    133       34.60          0.1815E+06
  22754      1    131    134       36.00          0.1815E+06
  22755      1    131    135       35.90          0.1815E+06
  22756      1    131    136       35.30          0.1815E+06
  22757      1    131    137       34.20          0.1815E+06
  22758      1    131    138       32.20          0.1815E+06
  22759      1    131    139       29.90          0.1815E+06
  22760      1    131    140       30.80          0.1815E+06
  22761      1    131    141       33.00          0.1815E+06
  22762      1    131    142       33.20          0.1815E+06
  22763      1    131    143       32.90          0.1815E+06
  22764      1    131    144       33.70          0.1815E+06
  22765      1    131    145       35.10          0.1815E+06
  22766      1    131    146       35.40          0.1815E+06
  22767      1    131    147       35.60          0.1815E+06
  22768      1    131    148       35.60          0.1815E+06
  22769      1    131    149       35.70          0.1815E+06
  22770      1    131    150       37.00          0.1815E+06
  22771      1    131    151       36.60          0.1815E+06
  22772      1    131    152       26.20          0.1815E+06
  22773      1    131    153       23.80          0.1815E+06
  22774      1    131    154       33.00          0.1815E+06
  22775      1    131    155       36.90          0.1815E+06
  22776      1    131    156       35.10          0.1815E+06
  22777      1    131    157       33.40          0.1815E+06
  22778      1    131    158       34.70          0.1815E+06
  22779      1    131    159       35.80          0.1815E+06
  22780      1    131    160       36.00          0.1815E+06
  22781      1    131    161       36.70          0.1815E+06
  22782      1    131    162       39.60          0.1815E+06
  22783      1    131    163       40.80          0.1815E+06
  22784      1    131    164       40.90          0.1815E+06
  22785      1    131    165       41.90          0.1815E+06
  22786      1    131    166       41.50          0.1815E+06
  22787      1    131    167       41.30          0.1815E+06
  22788      1    131    168       41.80          0.1815E+06
  22789      1    131    169       42.30          0.1815E+06
  22790      1    131    170       42.90          0.1815E+06
  22791      1    131    171       43.80          0.1815E+06
  22792      1    131    172       45.20          0.1815E+06
  22793      1    131    173       46.40          0.1815E+06
  22794      1    131    174       46.90          0.1815E+06
  22795      1    132      1      -11.96          0.1815E+06
  22796      1    132      2      -12.04          0.1815E+06
  22797      1    132      3      -12.04          0.1815E+06
  22798      1    132      4      -12.36          0.1815E+06
  22799      1    132      5      -13.16          0.1815E+06
  22800      1    132      6      -13.56          0.1815E+06
  22801      1    132      7      -13.96          0.1815E+06
  22802      1    132      8      -13.96          0.1815E+06
  22803      1    132      9      -13.96          0.1815E+06
  22804      1    132     10      -13.86          0.1815E+06
  22805      1    132     11      -14.56          0.1815E+06
  22806      1    132     12      -14.21          0.1815E+06
  22807      1    132     13      -14.06          0.1815E+06
  22808      1    132     14      -13.86          0.1815E+06
  22809      1    132     15      -13.86          0.1815E+06
  22810      1    132     16      -13.66          0.1815E+06
  22811      1    132     17      -13.66          0.1815E+06
  22812      1    132     18      -13.96          0.1815E+06
  22813      1    132     19      -13.76          0.1815E+06
  22814      1    132     20      -13.61          0.1815E+06
  22815      1    132     21      -13.61          0.1815E+06
  22816      1    132     22      -13.46          0.1815E+06
  22817      1    132     23      -13.26          0.1815E+06
  22818      1    132     24      -13.26          0.1815E+06
  22819      1    132     25      -13.16          0.1815E+06
  22820      1    132     26      -13.16          0.1815E+06
  22821      1    132     27      -12.96          0.1815E+06
  22822      1    132     28      -10.76          0.1815E+06
  22823      1    132     29      -11.56          0.1815E+06
  22824      1    132     30      -11.46          0.1815E+06
  22825      1    132     31      -11.06          0.1815E+06
  22826      1    132     32      -11.06          0.1815E+06
  22827      1    132     33      -10.66          0.1815E+06
  22828      1    132     34      -9.660          0.1815E+06
  22829      1    132     35      -8.560          0.1815E+06
  22830      1    132     36      -6.960          0.1815E+06
  22831      1    132     37      -6.160          0.1815E+06
  22832      1    132     38      -6.160          0.1815E+06
  22833      1    132     39      -5.760          0.1815E+06
  22834      1    132     40      -5.660          0.1815E+06
  22835      1    132     41      -5.500          0.1815E+06
  22836      1    132     42      -5.370          0.1815E+06
  22837      1    132     43      -5.380          0.1815E+06
  22838      1    132     44      -5.380          0.1815E+06
  22839      1    132     45      -5.150          0.1815E+06
  22840      1    132     46      -4.550          0.1815E+06
  22841      1    132     47      -3.880          0.1815E+06
  22842      1    132     48      -2.780          0.1815E+06
  22843      1    132     49      -2.780          0.1815E+06
  22844      1    132     50      0.5500          0.1815E+06
  22845      1    132     51      0.5500          0.1815E+06
  22846      1    132     52       3.570          0.1815E+06
  22847      1    132     53       5.570          0.1815E+06
  22848      1    132     54       7.570          0.1815E+06
  22849      1    132     55       7.570          0.1815E+06
  22850      1    132     56       6.780          0.1815E+06
  22851      1    132     57       7.320          0.1815E+06
  22852      1    132     58       7.780          0.1815E+06
  22853      1    132     59       8.180          0.1815E+06
  22854      1    132     60       8.770          0.1815E+06
  22855      1    132     61       8.860          0.1815E+06
  22856      1    132     62       9.460          0.1815E+06
  22857      1    132     63       10.39          0.1815E+06
  22858      1    132     64       9.590          0.1815E+06
  22859      1    132     65       9.760          0.1815E+06
  22860      1    132     66       9.600          0.1815E+06
  22861      1    132     67       9.590          0.1815E+06
  22862      1    132     68       9.780          0.1815E+06
  22863      1    132     69       9.860          0.1815E+06
  22864      1    132     70       9.850          0.1815E+06
  22865      1    132     71       9.920          0.1815E+06
  22866      1    132     72       10.06          0.1815E+06
  22867      1    132     73       9.930          0.1815E+06
  22868      1    132     74       9.550          0.1815E+06
  22869      1    132     75       10.81          0.1815E+06
  22870      1    132     76       9.000          0.1815E+06
  22871      1    132     77       8.720          0.1815E+06
  22872      1    132     78       7.340          0.1815E+06
  22873      1    132     79       5.980          0.1815E+06
  22874      1    132     80       5.880          0.1815E+06
  22875      1    132     81       5.960          0.1815E+06
  22876      1    132     82       6.190          0.1815E+06
  22877      1    132     83       6.280          0.1815E+06
  22878      1    132     84       6.070          0.1815E+06
  22879      1    132     85       5.860          0.1815E+06
  22880      1    132     86       5.900          0.1815E+06
  22881      1    132     87       6.260          0.1815E+06
  22882      1    132     88       7.440          0.1815E+06
  22883      1    132     89       8.420          0.1815E+06
  22884      1    132     90       9.070          0.1815E+06
  22885      1    132     91       9.890          0.1815E+06
  22886      1    132     92       10.52          0.1815E+06
  22887      1    132     93       10.65          0.1815E+06
  22888      1    132     94       10.86          0.1815E+06
  22889      1    132     95       11.52          0.1815E+06
  22890      1    132     96       11.52          0.1815E+06
  22891      1    132     97       10.85          0.1815E+06
  22892      1    132     98       8.600          0.1815E+06
  22893      1    132     99       8.850          0.1815E+06
  22894      1    132    100       12.36          0.1815E+06
  22895      1    132    101       13.69          0.1815E+06
  22896      1    132    102       14.98          0.1815E+06
  22897      1    132    103       16.88          0.1815E+06
  22898      1    132    104       18.18          0.1815E+06
  22899      1    132    105       19.67          0.1815E+06
  22900      1    132    106       21.22          0.1815E+06
  22901      1    132    107       22.03          0.1815E+06
  22902      1    132    108       23.15          0.1815E+06
  22903      1    132    109       24.92          0.1815E+06
  22904      1    132    110       26.93          0.1815E+06
  22905      1    132    111       28.62          0.1815E+06
  22906      1    132    112       30.31          0.1815E+06
  22907      1    132    113       31.54          0.1815E+06
  22908      1    132    114       32.36          0.1815E+06
  22909      1    132    115       32.20          0.1815E+06
  22910      1    132    116       33.30          0.1815E+06
  22911      1    132    117       33.70          0.1815E+06
  22912      1    132    118       33.40          0.1815E+06
  22913      1    132    119       32.60          0.1815E+06
  22914      1    132    120       32.40          0.1815E+06
  22915      1    132    121       33.30          0.1815E+06
  22916      1    132    122       34.70          0.1815E+06
  22917      1    132    123       35.90          0.1815E+06
  22918      1    132    124       36.20          0.1815E+06
  22919      1    132    125       36.00          0.1815E+06
  22920      1    132    126       35.50          0.1815E+06
  22921      1    132    127       34.90          0.1815E+06
  22922      1    132    128       34.40          0.1815E+06
  22923      1    132    129       34.00          0.1815E+06
  22924      1    132    130       33.60          0.1815E+06
  22925      1    132    131       33.10          0.1815E+06
  22926      1    132    132       33.20          0.1815E+06
  22927      1    132    133       34.10          0.1815E+06
  22928      1    132    134       35.40          0.1815E+06
  22929      1    132    135       35.40          0.1815E+06
  22930      1    132    136       34.60          0.1815E+06
  22931      1    132    137       33.40          0.1815E+06
  22932      1    132    138       31.40          0.1815E+06
  22933      1    132    139       28.10          0.1815E+06
  22934      1    132    140       30.10          0.1815E+06
  22935      1    132    141       31.50          0.1815E+06
  22936      1    132    142       30.30          0.1815E+06
  22937      1    132    143       30.90          0.1815E+06
  22938      1    132    144       32.60          0.1815E+06
  22939      1    132    145       34.10          0.1815E+06
  22940      1    132    146       34.50          0.1815E+06
  22941      1    132    147       34.30          0.1815E+06
  22942      1    132    148       35.00          0.1815E+06
  22943      1    132    149       35.20          0.1815E+06
  22944      1    132    150       36.00          0.1815E+06
  22945      1    132    151       34.60          0.1815E+06
  22946      1    132    152       23.30          0.1815E+06
  22947      1    132    153       30.70          0.1815E+06
  22948      1    132    154       37.40          0.1815E+06
  22949      1    132    155       38.00          0.1815E+06
  22950      1    132    156       36.30          0.1815E+06
  22951      1    132    157       35.30          0.1815E+06
  22952      1    132    158       35.30          0.1815E+06
  22953      1    132    159       36.80          0.1815E+06
  22954      1    132    160       39.20          0.1815E+06
  22955      1    132    161       40.30          0.1815E+06
  22956      1    132    162       41.10          0.1815E+06
  22957      1    132    163       41.80          0.1815E+06
  22958      1    132    164       42.80          0.1815E+06
  22959      1    132    165       43.20          0.1815E+06
  22960      1    132    166       42.90          0.1815E+06
  22961      1    132    167       42.80          0.1815E+06
  22962      1    132    168       42.90          0.1815E+06
  22963      1    132    169       43.30          0.1815E+06
  22964      1    132    170       43.90          0.1815E+06
  22965      1    132    171       44.30          0.1815E+06
  22966      1    132    172       45.20          0.1815E+06
  22967      1    132    173       46.20          0.1815E+06
  22968      1    132    174       46.50          0.1815E+06
  22969      1    133      1      -12.66          0.1815E+06
  22970      1    133      2      -12.26          0.1815E+06
  22971      1    133      3      -12.26          0.1815E+06
  22972      1    133      4      -12.36          0.1815E+06
  22973      1    133      5      -13.16          0.1815E+06
  22974      1    133      6      -13.56          0.1815E+06
  22975      1    133      7      -14.16          0.1815E+06
  22976      1    133      8      -14.01          0.1815E+06
  22977      1    133      9      -14.01          0.1815E+06
  22978      1    133     10      -13.86          0.1815E+06
  22979      1    133     11      -14.06          0.1815E+06
  22980      1    133     12      -13.56          0.1815E+06
  22981      1    133     13      -13.80          0.1815E+06
  22982      1    133     14      -13.92          0.1815E+06
  22983      1    133     15      -13.92          0.1815E+06
  22984      1    133     16      -14.06          0.1815E+06
  22985      1    133     17      -14.07          0.1815E+06
  22986      1    133     18      -14.37          0.1815E+06
  22987      1    133     19      -13.87          0.1815E+06
  22988      1    133     20      -13.57          0.1815E+06
  22989      1    133     21      -13.57          0.1815E+06
  22990      1    133     22      -13.67          0.1815E+06
  22991      1    133     23      -13.37          0.1815E+06
  22992      1    133     24      -13.07          0.1815E+06
  22993      1    133     25      -12.87          0.1815E+06
  22994      1    133     26      -12.87          0.1815E+06
  22995      1    133     27      -12.17          0.1815E+06
  22996      1    133     28      -11.17          0.1815E+06
  22997      1    133     29      -11.56          0.1815E+06
  22998      1    133     30      -11.46          0.1815E+06
  22999      1    133     31      -11.06          0.1815E+06
  23000      1    133     32      -11.06          0.1815E+06
  23001      1    133     33      -10.86          0.1815E+06
  23002      1    133     34      -10.06          0.1815E+06
  23003      1    133     35      -9.760          0.1815E+06
  23004      1    133     36      -9.260          0.1815E+06
  23005      1    133     37      -5.720          0.1815E+06
  23006      1    133     38      -5.720          0.1815E+06
  23007      1    133     39      -5.470          0.1815E+06
  23008      1    133     40      -5.620          0.1815E+06
  23009      1    133     41      -5.540          0.1815E+06
  23010      1    133     42      -4.560          0.1815E+06
  23011      1    133     43      -5.060          0.1815E+06
  23012      1    133     44      -5.060          0.1815E+06
  23013      1    133     45      -5.150          0.1815E+06
  23014      1    133     46      -4.600          0.1815E+06
  23015      1    133     47      -4.100          0.1815E+06
  23016      1    133     48      -3.850          0.1815E+06
  23017      1    133     49      -3.850          0.1815E+06
  23018      1    133     50      -3.150          0.1815E+06
  23019      1    133     51      0.5500          0.1815E+06
  23020      1    133     52       2.560          0.1815E+06
  23021      1    133     53       5.570          0.1815E+06
  23022      1    133     54       7.570          0.1815E+06
  23023      1    133     55       7.570          0.1815E+06
  23024      1    133     56       7.670          0.1815E+06
  23025      1    133     57       6.980          0.1815E+06
  23026      1    133     58       7.570          0.1815E+06
  23027      1    133     59       8.090          0.1815E+06
  23028      1    133     60       8.460          0.1815E+06
  23029      1    133     61       9.170          0.1815E+06
  23030      1    133     62       8.980          0.1815E+06
  23031      1    133     63       9.570          0.1815E+06
  23032      1    133     64       9.770          0.1815E+06
  23033      1    133     65       9.630          0.1815E+06
  23034      1    133     66       9.760          0.1815E+06
  23035      1    133     67       9.760          0.1815E+06
  23036      1    133     68       9.800          0.1815E+06
  23037      1    133     69       10.10          0.1815E+06
  23038      1    133     70       10.00          0.1815E+06
  23039      1    133     71       9.850          0.1815E+06
  23040      1    133     72       9.730          0.1815E+06
  23041      1    133     73       10.25          0.1815E+06
  23042      1    133     74       9.560          0.1815E+06
  23043      1    133     75       9.470          0.1815E+06
  23044      1    133     76       9.150          0.1815E+06
  23045      1    133     77       8.920          0.1815E+06
  23046      1    133     78       8.000          0.1815E+06
  23047      1    133     79       6.550          0.1815E+06
  23048      1    133     80       6.110          0.1815E+06
  23049      1    133     81       6.010          0.1815E+06
  23050      1    133     82       5.920          0.1815E+06
  23051      1    133     83       6.030          0.1815E+06
  23052      1    133     84       5.980          0.1815E+06
  23053      1    133     85       5.960          0.1815E+06
  23054      1    133     86       5.800          0.1815E+06
  23055      1    133     87       5.980          0.1815E+06
  23056      1    133     88       7.210          0.1815E+06
  23057      1    133     89       7.820          0.1815E+06
  23058      1    133     90       8.050          0.1815E+06
  23059      1    133     91       8.220          0.1815E+06
  23060      1    133     92       8.680          0.1815E+06
  23061      1    133     93       8.220          0.1815E+06
  23062      1    133     94       8.710          0.1815E+06
  23063      1    133     95       9.270          0.1815E+06
  23064      1    133     96       9.150          0.1815E+06
  23065      1    133     97       8.420          0.1815E+06
  23066      1    133     98       7.530          0.1815E+06
  23067      1    133     99       9.320          0.1815E+06
  23068      1    133    100       11.43          0.1815E+06
  23069      1    133    101       12.55          0.1815E+06
  23070      1    133    102       14.15          0.1815E+06
  23071      1    133    103       15.89          0.1815E+06
  23072      1    133    104       17.13          0.1815E+06
  23073      1    133    105       18.12          0.1815E+06
  23074      1    133    106       18.75          0.1815E+06
  23075      1    133    107       21.89          0.1815E+06
  23076      1    133    108       25.15          0.1815E+06
  23077      1    133    109       26.37          0.1815E+06
  23078      1    133    110       28.92          0.1815E+06
  23079      1    133    111       30.82          0.1815E+06
  23080      1    133    112       31.54          0.1815E+06
  23081      1    133    113       32.04          0.1815E+06
  23082      1    133    114       33.18          0.1815E+06
  23083      1    133    115       33.23          0.1815E+06
  23084      1    133    116       33.60          0.1815E+06
  23085      1    133    117       33.78          0.1815E+06
  23086      1    133    118       33.21          0.1815E+06
  23087      1    133    119       32.31          0.1815E+06
  23088      1    133    120       33.35          0.1815E+06
  23089      1    133    121       34.74          0.1815E+06
  23090      1    133    122       35.91          0.1815E+06
  23091      1    133    123       37.03          0.1815E+06
  23092      1    133    124       36.37          0.1815E+06
  23093      1    133    125       35.54          0.1815E+06
  23094      1    133    126       34.91          0.1815E+06
  23095      1    133    127       34.20          0.1815E+06
  23096      1    133    128       33.80          0.1815E+06
  23097      1    133    129       33.50          0.1815E+06
  23098      1    133    130       33.00          0.1815E+06
  23099      1    133    131       32.60          0.1815E+06
  23100      1    133    132       32.50          0.1815E+06
  23101      1    133    133       33.30          0.1815E+06
  23102      1    133    134       34.20          0.1815E+06
  23103      1    133    135       34.40          0.1815E+06
  23104      1    133    136       33.70          0.1815E+06
  23105      1    133    137       32.60          0.1815E+06
  23106      1    133    138       30.50          0.1815E+06
  23107      1    133    139       26.50          0.1815E+06
  23108      1    133    140       27.00          0.1815E+06
  23109      1    133    141       29.20          0.1815E+06
  23110      1    133    142       29.30          0.1815E+06
  23111      1    133    143       30.10          0.1815E+06
  23112      1    133    144       31.90          0.1815E+06
  23113      1    133    145       33.00          0.1815E+06
  23114      1    133    146       32.90          0.1815E+06
  23115      1    133    147       33.10          0.1815E+06
  23116      1    133    148       34.40          0.1815E+06
  23117      1    133    149       34.30          0.1815E+06
  23118      1    133    150       32.70          0.1815E+06
  23119      1    133    151       25.00          0.1815E+06
  23120      1    133    152       30.50          0.1815E+06
  23121      1    133    153       37.50          0.1815E+06
  23122      1    133    154       38.80          0.1815E+06
  23123      1    133    155       38.10          0.1815E+06
  23124      1    133    156       37.00          0.1815E+06
  23125      1    133    157       36.70          0.1815E+06
  23126      1    133    158       37.10          0.1815E+06
  23127      1    133    159       38.60          0.1815E+06
  23128      1    133    160       40.60          0.1815E+06
  23129      1    133    161       41.20          0.1815E+06
  23130      1    133    162       41.40          0.1815E+06
  23131      1    133    163       42.20          0.1815E+06
  23132      1    133    164       43.10          0.1815E+06
  23133      1    133    165       43.30          0.1815E+06
  23134      1    133    166       43.50          0.1815E+06
  23135      1    133    167       43.40          0.1815E+06
  23136      1    133    168       43.30          0.1815E+06
  23137      1    133    169       43.70          0.1815E+06
  23138      1    133    170       44.30          0.1815E+06
  23139      1    133    171       44.50          0.1815E+06
  23140      1    133    172       44.80          0.1815E+06
  23141      1    133    173       45.20          0.1815E+06
  23142      1    133    174       45.80          0.1815E+06
  23143      1    134      1      -12.66          0.1815E+06
  23144      1    134      2      -12.26          0.1815E+06
  23145      1    134      3      -12.26          0.1815E+06
  23146      1    134      4      -12.22          0.1815E+06
  23147      1    134      5      -12.60          0.1815E+06
  23148      1    134      6      -12.76          0.1815E+06
  23149      1    134      7      -13.46          0.1815E+06
  23150      1    134      8      -13.66          0.1815E+06
  23151      1    134      9      -13.66          0.1815E+06
  23152      1    134     10      -13.81          0.1815E+06
  23153      1    134     11      -13.82          0.1815E+06
  23154      1    134     12      -14.17          0.1815E+06
  23155      1    134     13      -14.17          0.1815E+06
  23156      1    134     14      -14.97          0.1815E+06
  23157      1    134     15      -14.97          0.1815E+06
  23158      1    134     16      -14.47          0.1815E+06
  23159      1    134     17      -14.27          0.1815E+06
  23160      1    134     18      -14.32          0.1815E+06
  23161      1    134     19      -14.17          0.1815E+06
  23162      1    134     20      -13.97          0.1815E+06
  23163      1    134     21      -13.97          0.1815E+06
  23164      1    134     22      -13.27          0.1815E+06
  23165      1    134     23      -13.47          0.1815E+06
  23166      1    134     24      -13.07          0.1815E+06
  23167      1    134     25      -12.87          0.1815E+06
  23168      1    134     26      -12.87          0.1815E+06
  23169      1    134     27      -11.76          0.1815E+06
  23170      1    134     28      -11.17          0.1815E+06
  23171      1    134     29      -11.61          0.1815E+06
  23172      1    134     30      -11.46          0.1815E+06
  23173      1    134     31      -9.920          0.1815E+06
  23174      1    134     32      -9.920          0.1815E+06
  23175      1    134     33      -10.26          0.1815E+06
  23176      1    134     34      -10.06          0.1815E+06
  23177      1    134     35      -9.110          0.1815E+06
  23178      1    134     36      -7.730          0.1815E+06
  23179      1    134     37      -5.480          0.1815E+06
  23180      1    134     38      -5.480          0.1815E+06
  23181      1    134     39      -5.260          0.1815E+06
  23182      1    134     40      -5.660          0.1815E+06
  23183      1    134     41      -5.660          0.1815E+06
  23184      1    134     42      -4.930          0.1815E+06
  23185      1    134     43      -4.940          0.1815E+06
  23186      1    134     44      -4.940          0.1815E+06
  23187      1    134     45      -4.900          0.1815E+06
  23188      1    134     46      -4.440          0.1815E+06
  23189      1    134     47      -4.050          0.1815E+06
  23190      1    134     48      -3.850          0.1815E+06
  23191      1    134     49      -3.850          0.1815E+06
  23192      1    134     50      -3.150          0.1815E+06
  23193      1    134     51      0.5500          0.1815E+06
  23194      1    134     52       2.560          0.1815E+06
  23195      1    134     53       4.560          0.1815E+06
  23196      1    134     54       6.570          0.1815E+06
  23197      1    134     55       6.570          0.1815E+06
  23198      1    134     56       8.580          0.1815E+06
  23199      1    134     57       7.280          0.1815E+06
  23200      1    134     58       7.760          0.1815E+06
  23201      1    134     59       8.440          0.1815E+06
  23202      1    134     60       8.440          0.1815E+06
  23203      1    134     61       8.530          0.1815E+06
  23204      1    134     62       9.690          0.1815E+06
  23205      1    134     63       9.470          0.1815E+06
  23206      1    134     64       9.880          0.1815E+06
  23207      1    134     65       9.920          0.1815E+06
  23208      1    134     66       10.00          0.1815E+06
  23209      1    134     67       10.10          0.1815E+06
  23210      1    134     68       10.35          0.1815E+06
  23211      1    134     69       10.14          0.1815E+06
  23212      1    134     70       9.900          0.1815E+06
  23213      1    134     71       9.850          0.1815E+06
  23214      1    134     72       9.880          0.1815E+06
  23215      1    134     73       9.850          0.1815E+06
  23216      1    134     74       9.880          0.1815E+06
  23217      1    134     75       9.310          0.1815E+06
  23218      1    134     76       9.840          0.1815E+06
  23219      1    134     77       8.820          0.1815E+06
  23220      1    134     78       8.340          0.1815E+06
  23221      1    134     79       7.260          0.1815E+06
  23222      1    134     80       6.400          0.1815E+06
  23223      1    134     81       5.860          0.1815E+06
  23224      1    134     82       5.860          0.1815E+06
  23225      1    134     83       6.170          0.1815E+06
  23226      1    134     84       5.960          0.1815E+06
  23227      1    134     85       6.010          0.1815E+06
  23228      1    134     86       5.840          0.1815E+06
  23229      1    134     87       5.690          0.1815E+06
  23230      1    134     88       6.010          0.1815E+06
  23231      1    134     89       6.010          0.1815E+06
  23232      1    134     90       5.860          0.1815E+06
  23233      1    134     91       5.860          0.1815E+06
  23234      1    134     92       5.800          0.1815E+06
  23235      1    134     93       6.190          0.1815E+06
  23236      1    134     94       6.750          0.1815E+06
  23237      1    134     95       6.920          0.1815E+06
  23238      1    134     96       6.780          0.1815E+06
  23239      1    134     97       7.150          0.1815E+06
  23240      1    134     98       7.300          0.1815E+06
  23241      1    134     99       7.820          0.1815E+06
  23242      1    134    100       9.300          0.1815E+06
  23243      1    134    101       10.76          0.1815E+06
  23244      1    134    102       12.26          0.1815E+06
  23245      1    134    103       13.94          0.1815E+06
  23246      1    134    104       14.57          0.1815E+06
  23247      1    134    105       15.89          0.1815E+06
  23248      1    134    106       18.97          0.1815E+06
  23249      1    134    107       22.76          0.1815E+06
  23250      1    134    108       24.98          0.1815E+06
  23251      1    134    109       27.04          0.1815E+06
  23252      1    134    110       29.88          0.1815E+06
  23253      1    134    111       29.76          0.1815E+06
  23254      1    134    112       30.70          0.1815E+06
  23255      1    134    113       31.71          0.1815E+06
  23256      1    134    114       33.25          0.1815E+06
  23257      1    134    115       34.02          0.1815E+06
  23258      1    134    116       34.43          0.1815E+06
  23259      1    134    117       34.16          0.1815E+06
  23260      1    134    118       33.25          0.1815E+06
  23261      1    134    119       33.54          0.1815E+06
  23262      1    134    120       34.81          0.1815E+06
  23263      1    134    121       36.00          0.1815E+06
  23264      1    134    122       37.36          0.1815E+06
  23265      1    134    123       38.50          0.1815E+06
  23266      1    134    124       35.83          0.1815E+06
  23267      1    134    125       35.11          0.1815E+06
  23268      1    134    126       34.88          0.1815E+06
  23269      1    134    127       34.93          0.1815E+06
  23270      1    134    128       34.25          0.1815E+06
  23271      1    134    129       33.23          0.1815E+06
  23272      1    134    130       32.37          0.1815E+06
  23273      1    134    131       31.80          0.1815E+06
  23274      1    134    132       31.80          0.1815E+06
  23275      1    134    133       32.40          0.1815E+06
  23276      1    134    134       33.00          0.1815E+06
  23277      1    134    135       33.20          0.1815E+06
  23278      1    134    136       32.90          0.1815E+06
  23279      1    134    137       31.80          0.1815E+06
  23280      1    134    138       29.90          0.1815E+06
  23281      1    134    139       27.00          0.1815E+06
  23282      1    134    140       25.10          0.1815E+06
  23283      1    134    141       27.10          0.1815E+06
  23284      1    134    142       29.20          0.1815E+06
  23285      1    134    143       30.70          0.1815E+06
  23286      1    134    144       31.90          0.1815E+06
  23287      1    134    145       32.60          0.1815E+06
  23288      1    134    146       32.90          0.1815E+06
  23289      1    134    147       33.40          0.1815E+06
  23290      1    134    148       33.30          0.1815E+06
  23291      1    134    149       30.90          0.1815E+06
  23292      1    134    150       23.50          0.1815E+06
  23293      1    134    151       28.90          0.1815E+06
  23294      1    134    152       37.10          0.1815E+06
  23295      1    134    153       38.00          0.1815E+06
  23296      1    134    154       37.80          0.1815E+06
  23297      1    134    155       38.00          0.1815E+06
  23298      1    134    156       38.10          0.1815E+06
  23299      1    134    157       38.20          0.1815E+06
  23300      1    134    158       38.90          0.1815E+06
  23301      1    134    159       39.90          0.1815E+06
  23302      1    134    160       40.50          0.1815E+06
  23303      1    134    161       41.30          0.1815E+06
  23304      1    134    162       41.50          0.1815E+06
  23305      1    134    163       41.70          0.1815E+06
  23306      1    134    164       42.10          0.1815E+06
  23307      1    134    165       42.00          0.1815E+06
  23308      1    134    166       42.70          0.1815E+06
  23309      1    134    167       43.50          0.1815E+06
  23310      1    134    168       43.40          0.1815E+06
  23311      1    134    169       43.60          0.1815E+06
  23312      1    134    170       44.20          0.1815E+06
  23313      1    134    171       44.30          0.1815E+06
  23314      1    134    172       44.30          0.1815E+06
  23315      1    134    173       44.60          0.1815E+06
  23316      1    134    174       45.30          0.1815E+06
  23317      1    135      1      -12.66          0.1815E+06
  23318      1    135      2      -12.26          0.1815E+06
  23319      1    135      3      -12.26          0.1815E+06
  23320      1    135      4      -12.22          0.1815E+06
  23321      1    135      5      -12.60          0.1815E+06
  23322      1    135      6      -12.76          0.1815E+06
  23323      1    135      7      -13.46          0.1815E+06
  23324      1    135      8      -13.66          0.1815E+06
  23325      1    135      9      -13.66          0.1815E+06
  23326      1    135     10      -13.81          0.1815E+06
  23327      1    135     11      -13.82          0.1815E+06
  23328      1    135     12      -14.17          0.1815E+06
  23329      1    135     13      -14.17          0.1815E+06
  23330      1    135     14      -14.97          0.1815E+06
  23331      1    135     15      -14.97          0.1815E+06
  23332      1    135     16      -14.47          0.1815E+06
  23333      1    135     17      -14.27          0.1815E+06
  23334      1    135     18      -14.32          0.1815E+06
  23335      1    135     19      -14.17          0.1815E+06
  23336      1    135     20      -13.97          0.1815E+06
  23337      1    135     21      -13.97          0.1815E+06
  23338      1    135     22      -13.27          0.1815E+06
  23339      1    135     23      -13.47          0.1815E+06
  23340      1    135     24      -13.07          0.1815E+06
  23341      1    135     25      -12.87          0.1815E+06
  23342      1    135     26      -12.87          0.1815E+06
  23343      1    135     27      -11.76          0.1815E+06
  23344      1    135     28      -11.17          0.1815E+06
  23345      1    135     29      -11.61          0.1815E+06
  23346      1    135     30      -11.46          0.1815E+06
  23347      1    135     31      -9.920          0.1815E+06
  23348      1    135     32      -9.920          0.1815E+06
  23349      1    135     33      -10.26          0.1815E+06
  23350      1    135     34      -10.06          0.1815E+06
  23351      1    135     35      -9.110          0.1815E+06
  23352      1    135     36      -7.730          0.1815E+06
  23353      1    135     37      -5.480          0.1815E+06
  23354      1    135     38      -5.480          0.1815E+06
  23355      1    135     39      -5.260          0.1815E+06
  23356      1    135     40      -5.660          0.1815E+06
  23357      1    135     41      -5.660          0.1815E+06
  23358      1    135     42      -4.930          0.1815E+06
  23359      1    135     43      -4.940          0.1815E+06
  23360      1    135     44      -4.940          0.1815E+06
  23361      1    135     45      -4.900          0.1815E+06
  23362      1    135     46      -4.440          0.1815E+06
  23363      1    135     47      -4.050          0.1815E+06
  23364      1    135     48      -3.850          0.1815E+06
  23365      1    135     49      -3.850          0.1815E+06
  23366      1    135     50      -3.150          0.1815E+06
  23367      1    135     51      0.5500          0.1815E+06
  23368      1    135     52       2.560          0.1815E+06
  23369      1    135     53       4.560          0.1815E+06
  23370      1    135     54       6.570          0.1815E+06
  23371      1    135     55       6.570          0.1815E+06
  23372      1    135     56       8.580          0.1815E+06
  23373      1    135     57       7.530          0.1815E+06
  23374      1    135     58       7.730          0.1815E+06
  23375      1    135     59       8.310          0.1815E+06
  23376      1    135     60       8.900          0.1815E+06
  23377      1    135     61       9.140          0.1815E+06
  23378      1    135     62       9.020          0.1815E+06
  23379      1    135     63       9.640          0.1815E+06
  23380      1    135     64       9.730          0.1815E+06
  23381      1    135     65       9.940          0.1815E+06
  23382      1    135     66       10.06          0.1815E+06
  23383      1    135     67       9.810          0.1815E+06
  23384      1    135     68       11.11          0.1815E+06
  23385      1    135     69       10.18          0.1815E+06
  23386      1    135     70       10.15          0.1815E+06
  23387      1    135     71       10.22          0.1815E+06
  23388      1    135     72       10.06          0.1815E+06
  23389      1    135     73       9.890          0.1815E+06
  23390      1    135     74       10.47          0.1815E+06
  23391      1    135     75       9.210          0.1815E+06
  23392      1    135     76       9.140          0.1815E+06
  23393      1    135     77       8.840          0.1815E+06
  23394      1    135     78       8.180          0.1815E+06
  23395      1    135     79       7.400          0.1815E+06
  23396      1    135     80       6.570          0.1815E+06
  23397      1    135     81       6.250          0.1815E+06
  23398      1    135     82       5.840          0.1815E+06
  23399      1    135     83       5.340          0.1815E+06
  23400      1    135     84       5.840          0.1815E+06
  23401      1    135     85       5.780          0.1815E+06
  23402      1    135     86       6.010          0.1815E+06
  23403      1    135     87       5.750          0.1815E+06
  23404      1    135     88       6.010          0.1815E+06
  23405      1    135     89       5.960          0.1815E+06
  23406      1    135     90       5.820          0.1815E+06
  23407      1    135     91       5.900          0.1815E+06
  23408      1    135     92       6.030          0.1815E+06
  23409      1    135     93       6.210          0.1815E+06
  23410      1    135     94       6.340          0.1815E+06
  23411      1    135     95       6.610          0.1815E+06
  23412      1    135     96       7.010          0.1815E+06
  23413      1    135     97       7.670          0.1815E+06
  23414      1    135     98       8.560          0.1815E+06
  23415      1    135     99       9.260          0.1815E+06
  23416      1    135    100       9.850          0.1815E+06
  23417      1    135    101       10.96          0.1815E+06
  23418      1    135    102       12.63          0.1815E+06
  23419      1    135    103       14.35          0.1815E+06
  23420      1    135    104       15.13          0.1815E+06
  23421      1    135    105       16.26          0.1815E+06
  23422      1    135    106       18.46          0.1815E+06
  23423      1    135    107       21.73          0.1815E+06
  23424      1    135    108       23.54          0.1815E+06
  23425      1    135    109       25.29          0.1815E+06
  23426      1    135    110       27.12          0.1815E+06
  23427      1    135    111       29.15          0.1815E+06
  23428      1    135    112       30.82          0.1815E+06
  23429      1    135    113       31.75          0.1815E+06
  23430      1    135    114       33.29          0.1815E+06
  23431      1    135    115       34.45          0.1815E+06
  23432      1    135    116       35.13          0.1815E+06
  23433      1    135    117       35.24          0.1815E+06
  23434      1    135    118       34.63          0.1815E+06
  23435      1    135    119       34.81          0.1815E+06
  23436      1    135    120       35.27          0.1815E+06
  23437      1    135    121       36.45          0.1815E+06
  23438      1    135    122       37.43          0.1815E+06
  23439      1    135    123       37.25          0.1815E+06
  23440      1    135    124       36.31          0.1815E+06
  23441      1    135    125       35.49          0.1815E+06
  23442      1    135    126       35.54          0.1815E+06
  23443      1    135    127       34.88          0.1815E+06
  23444      1    135    128       33.72          0.1815E+06
  23445      1    135    129       32.79          0.1815E+06
  23446      1    135    130       32.75          0.1815E+06
  23447      1    135    131       32.79          0.1815E+06
  23448      1    135    132       30.43          0.1815E+06
  23449      1    135    133       31.40          0.1815E+06
  23450      1    135    134       31.80          0.1815E+06
  23451      1    135    135       32.30          0.1815E+06
  23452      1    135    136       32.20          0.1815E+06
  23453      1    135    137       31.20          0.1815E+06
  23454      1    135    138       29.10          0.1815E+06
  23455      1    135    139       26.30          0.1815E+06
  23456      1    135    140       25.40          0.1815E+06
  23457      1    135    141       28.20          0.1815E+06
  23458      1    135    142       30.50          0.1815E+06
  23459      1    135    143       31.60          0.1815E+06
  23460      1    135    144       32.50          0.1815E+06
  23461      1    135    145       33.40          0.1815E+06
  23462      1    135    146       33.10          0.1815E+06
  23463      1    135    147       32.80          0.1815E+06
  23464      1    135    148       31.10          0.1815E+06
  23465      1    135    149       26.50          0.1815E+06
  23466      1    135    150       24.60          0.1815E+06
  23467      1    135    151       33.80          0.1815E+06
  23468      1    135    152       37.30          0.1815E+06
  23469      1    135    153       37.30          0.1815E+06
  23470      1    135    154       37.40          0.1815E+06
  23471      1    135    155       38.40          0.1815E+06
  23472      1    135    156       39.10          0.1815E+06
  23473      1    135    157       39.70          0.1815E+06
  23474      1    135    158       40.40          0.1815E+06
  23475      1    135    159       41.10          0.1815E+06
  23476      1    135    160       41.40          0.1815E+06
  23477      1    135    161       41.60          0.1815E+06
  23478      1    135    162       41.60          0.1815E+06
  23479      1    135    163       41.20          0.1815E+06
  23480      1    135    164       40.00          0.1815E+06
  23481      1    135    165       40.00          0.1815E+06
  23482      1    135    166       41.60          0.1815E+06
  23483      1    135    167       43.40          0.1815E+06
  23484      1    135    168       43.60          0.1815E+06
  23485      1    135    169       43.50          0.1815E+06
  23486      1    135    170       43.80          0.1815E+06
  23487      1    135    171       43.90          0.1815E+06
  23488      1    135    172       44.00          0.1815E+06
  23489      1    135    173       44.20          0.1815E+06
  23490      1    135    174       43.30          0.1815E+06
  23491      1    136      1      -11.86          0.1815E+06
  23492      1    136      2      -11.66          0.1815E+06
  23493      1    136      3      -11.66          0.1815E+06
  23494      1    136      4      -11.76          0.1815E+06
  23495      1    136      5      -12.26          0.1815E+06
  23496      1    136      6      -12.66          0.1815E+06
  23497      1    136      7      -13.47          0.1815E+06
  23498      1    136      8      -13.67          0.1815E+06
  23499      1    136      9      -13.67          0.1815E+06
  23500      1    136     10      -14.07          0.1815E+06
  23501      1    136     11      -13.87          0.1815E+06
  23502      1    136     12      -14.57          0.1815E+06
  23503      1    136     13      -14.77          0.1815E+06
  23504      1    136     14      -14.97          0.1815E+06
  23505      1    136     15      -14.97          0.1815E+06
  23506      1    136     16      -14.65          0.1815E+06
  23507      1    136     17      -14.47          0.1815E+06
  23508      1    136     18      -14.27          0.1815E+06
  23509      1    136     19      -14.17          0.1815E+06
  23510      1    136     20      -13.97          0.1815E+06
  23511      1    136     21      -13.97          0.1815E+06
  23512      1    136     22      -13.27          0.1815E+06
  23513      1    136     23      -13.47          0.1815E+06
  23514      1    136     24      -13.41          0.1815E+06
  23515      1    136     25      -13.18          0.1815E+06
  23516      1    136     26      -13.18          0.1815E+06
  23517      1    136     27      -12.07          0.1815E+06
  23518      1    136     28      -11.97          0.1815E+06
  23519      1    136     29      -11.97          0.1815E+06
  23520      1    136     30      -11.57          0.1815E+06
  23521      1    136     31      -10.08          0.1815E+06
  23522      1    136     32      -10.08          0.1815E+06
  23523      1    136     33      -9.840          0.1815E+06
  23524      1    136     34      -9.550          0.1815E+06
  23525      1    136     35      -8.150          0.1815E+06
  23526      1    136     36      -5.570          0.1815E+06
  23527      1    136     37      -5.570          0.1815E+06
  23528      1    136     38      -5.570          0.1815E+06
  23529      1    136     39      -5.340          0.1815E+06
  23530      1    136     40      -5.160          0.1815E+06
  23531      1    136     41      -4.070          0.1815E+06
  23532      1    136     42      -4.630          0.1815E+06
  23533      1    136     43      -4.940          0.1815E+06
  23534      1    136     44      -4.940          0.1815E+06
  23535      1    136     45      -4.900          0.1815E+06
  23536      1    136     46      -4.050          0.1815E+06
  23537      1    136     47      -4.050          0.1815E+06
  23538      1    136     48      -3.860          0.1815E+06
  23539      1    136     49      -3.860          0.1815E+06
  23540      1    136     50      -3.460          0.1815E+06
  23541      1    136     51      0.5500          0.1815E+06
  23542      1    136     52       2.560          0.1815E+06
  23543      1    136     53       3.560          0.1815E+06
  23544      1    136     54       5.570          0.1815E+06
  23545      1    136     55       5.570          0.1815E+06
  23546      1    136     56       7.570          0.1815E+06
  23547      1    136     57       7.400          0.1815E+06
  23548      1    136     58       7.500          0.1815E+06
  23549      1    136     59       8.380          0.1815E+06
  23550      1    136     60       9.030          0.1815E+06
  23551      1    136     61       9.060          0.1815E+06
  23552      1    136     62       9.170          0.1815E+06
  23553      1    136     63       10.23          0.1815E+06
  23554      1    136     64       9.930          0.1815E+06
  23555      1    136     65       9.930          0.1815E+06
  23556      1    136     66       10.53          0.1815E+06
  23557      1    136     67       10.18          0.1815E+06
  23558      1    136     68       11.06          0.1815E+06
  23559      1    136     69       10.22          0.1815E+06
  23560      1    136     70       10.30          0.1815E+06
  23561      1    136     71       10.31          0.1815E+06
  23562      1    136     72       10.57          0.1815E+06
  23563      1    136     73       10.17          0.1815E+06
  23564      1    136     74       9.810          0.1815E+06
  23565      1    136     75       9.470          0.1815E+06
  23566      1    136     76       9.050          0.1815E+06
  23567      1    136     77       8.980          0.1815E+06
  23568      1    136     78       7.900          0.1815E+06
  23569      1    136     79       8.310          0.1815E+06
  23570      1    136     80       7.070          0.1815E+06
  23571      1    136     81       6.730          0.1815E+06
  23572      1    136     82       5.980          0.1815E+06
  23573      1    136     83       6.150          0.1815E+06
  23574      1    136     84       6.030          0.1815E+06
  23575      1    136     85       6.030          0.1815E+06
  23576      1    136     86       5.960          0.1815E+06
  23577      1    136     87       5.610          0.1815E+06
  23578      1    136     88       5.690          0.1815E+06
  23579      1    136     89       6.030          0.1815E+06
  23580      1    136     90       5.800          0.1815E+06
  23581      1    136     91       5.900          0.1815E+06
  23582      1    136     92       6.210          0.1815E+06
  23583      1    136     93       7.550          0.1815E+06
  23584      1    136     94       8.020          0.1815E+06
  23585      1    136     95       9.520          0.1815E+06
  23586      1    136     96       9.100          0.1815E+06
  23587      1    136     97       9.970          0.1815E+06
  23588      1    136     98       11.01          0.1815E+06
  23589      1    136     99       11.32          0.1815E+06
  23590      1    136    100       11.96          0.1815E+06
  23591      1    136    101       12.39          0.1815E+06
  23592      1    136    102       13.82          0.1815E+06
  23593      1    136    103       15.19          0.1815E+06
  23594      1    136    104       16.44          0.1815E+06
  23595      1    136    105       17.27          0.1815E+06
  23596      1    136    106       19.22          0.1815E+06
  23597      1    136    107       21.02          0.1815E+06
  23598      1    136    108       23.14          0.1815E+06
  23599      1    136    109       25.10          0.1815E+06
  23600      1    136    110       27.95          0.1815E+06
  23601      1    136    111       30.20          0.1815E+06
  23602      1    136    112       32.08          0.1815E+06
  23603      1    136    113       33.45          0.1815E+06
  23604      1    136    114       34.70          0.1815E+06
  23605      1    136    115       35.54          0.1815E+06
  23606      1    136    116       36.43          0.1815E+06
  23607      1    136    117       36.77          0.1815E+06
  23608      1    136    118       36.59          0.1815E+06
  23609      1    136    119       36.40          0.1815E+06
  23610      1    136    120       35.88          0.1815E+06
  23611      1    136    121       36.84          0.1815E+06
  23612      1    136    122       36.72          0.1815E+06
  23613      1    136    123       37.41          0.1815E+06
  23614      1    136    124       35.97          0.1815E+06
  23615      1    136    125       35.45          0.1815E+06
  23616      1    136    126       35.13          0.1815E+06
  23617      1    136    127       34.29          0.1815E+06
  23618      1    136    128       33.84          0.1815E+06
  23619      1    136    129       33.99          0.1815E+06
  23620      1    136    130       33.84          0.1815E+06
  23621      1    136    131       33.29          0.1815E+06
  23622      1    136    132       29.62          0.1815E+06
  23623      1    136    133       31.63          0.1815E+06
  23624      1    136    134       30.94          0.1815E+06
  23625      1    136    135       31.50          0.1815E+06
  23626      1    136    136       31.20          0.1815E+06
  23627      1    136    137       30.30          0.1815E+06
  23628      1    136    138       27.50          0.1815E+06
  23629      1    136    139       24.90          0.1815E+06
  23630      1    136    140       28.10          0.1815E+06
  23631      1    136    141       30.80          0.1815E+06
  23632      1    136    142       31.50          0.1815E+06
  23633      1    136    143       32.20          0.1815E+06
  23634      1    136    144       32.70          0.1815E+06
  23635      1    136    145       31.80          0.1815E+06
  23636      1    136    146       29.70          0.1815E+06
  23637      1    136    147       25.20          0.1815E+06
  23638      1    136    148       25.10          0.1815E+06
  23639      1    136    149       23.30          0.1815E+06
  23640      1    136    150       26.70          0.1815E+06
  23641      1    136    151       33.50          0.1815E+06
  23642      1    136    152       36.70          0.1815E+06
  23643      1    136    153       37.50          0.1815E+06
  23644      1    136    154       38.20          0.1815E+06
  23645      1    136    155       39.00          0.1815E+06
  23646      1    136    156       40.10          0.1815E+06
  23647      1    136    157       41.50          0.1815E+06
  23648      1    136    158       42.40          0.1815E+06
  23649      1    136    159       42.50          0.1815E+06
  23650      1    136    160       42.10          0.1815E+06
  23651      1    136    161       41.80          0.1815E+06
  23652      1    136    162       41.50          0.1815E+06
  23653      1    136    163       40.30          0.1815E+06
  23654      1    136    164       39.40          0.1815E+06
  23655      1    136    165       40.00          0.1815E+06
  23656      1    136    166       41.50          0.1815E+06
  23657      1    136    167       43.50          0.1815E+06
  23658      1    136    168       43.60          0.1815E+06
  23659      1    136    169       43.30          0.1815E+06
  23660      1    136    170       43.30          0.1815E+06
  23661      1    136    171       43.60          0.1815E+06
  23662      1    136    172       43.70          0.1815E+06
  23663      1    136    173       43.70          0.1815E+06
  23664      1    136    174       42.60          0.1815E+06
  23665      1    137      1      -11.36          0.1815E+06
  23666      1    137      2      -11.17          0.1815E+06
  23667      1    137      3      -11.17          0.1815E+06
  23668      1    137      4      -11.47          0.1815E+06
  23669      1    137      5      -12.07          0.1815E+06
  23670      1    137      6      -12.87          0.1815E+06
  23671      1    137      7      -13.47          0.1815E+06
  23672      1    137      8      -14.17          0.1815E+06
  23673      1    137      9      -14.17          0.1815E+06
  23674      1    137     10      -14.57          0.1815E+06
  23675      1    137     11      -14.79          0.1815E+06
  23676      1    137     12      -14.71          0.1815E+06
  23677      1    137     13      -14.77          0.1815E+06
  23678      1    137     14      -14.97          0.1815E+06
  23679      1    137     15      -14.97          0.1815E+06
  23680      1    137     16      -14.65          0.1815E+06
  23681      1    137     17      -14.47          0.1815E+06
  23682      1    137     18      -14.27          0.1815E+06
  23683      1    137     19      -14.27          0.1815E+06
  23684      1    137     20      -14.22          0.1815E+06
  23685      1    137     21      -14.22          0.1815E+06
  23686      1    137     22      -13.89          0.1815E+06
  23687      1    137     23      -13.77          0.1815E+06
  23688      1    137     24      -13.77          0.1815E+06
  23689      1    137     25      -13.47          0.1815E+06
  23690      1    137     26      -13.47          0.1815E+06
  23691      1    137     27      -12.17          0.1815E+06
  23692      1    137     28      -11.77          0.1815E+06
  23693      1    137     29      -11.47          0.1815E+06
  23694      1    137     30      -10.87          0.1815E+06
  23695      1    137     31      -10.31          0.1815E+06
  23696      1    137     32      -10.31          0.1815E+06
  23697      1    137     33      -9.770          0.1815E+06
  23698      1    137     34      -9.770          0.1815E+06
  23699      1    137     35      -8.520          0.1815E+06
  23700      1    137     36      -6.480          0.1815E+06
  23701      1    137     37      -6.470          0.1815E+06
  23702      1    137     38      -6.470          0.1815E+06
  23703      1    137     39      -5.670          0.1815E+06
  23704      1    137     40      -5.160          0.1815E+06
  23705      1    137     41      -4.070          0.1815E+06
  23706      1    137     42      -4.630          0.1815E+06
  23707      1    137     43      -4.790          0.1815E+06
  23708      1    137     44      -4.790          0.1815E+06
  23709      1    137     45      -4.760          0.1815E+06
  23710      1    137     46      -4.460          0.1815E+06
  23711      1    137     47      -4.390          0.1815E+06
  23712      1    137     48      -4.310          0.1815E+06
  23713      1    137     49      -4.310          0.1815E+06
  23714      1    137     50      -4.150          0.1815E+06
  23715      1    137     51      0.5500          0.1815E+06
  23716      1    137     52       1.560          0.1815E+06
  23717      1    137     53       2.570          0.1815E+06
  23718      1    137     54       4.570          0.1815E+06
  23719      1    137     55       4.570          0.1815E+06
  23720      1    137     56       8.430          0.1815E+06
  23721      1    137     57       7.030          0.1815E+06
  23722      1    137     58       7.460          0.1815E+06
  23723      1    137     59       8.090          0.1815E+06
  23724      1    137     60       8.680          0.1815E+06
  23725      1    137     61       9.060          0.1815E+06
  23726      1    137     62       9.150          0.1815E+06
  23727      1    137     63       9.750          0.1815E+06
  23728      1    137     64       10.14          0.1815E+06
  23729      1    137     65       10.07          0.1815E+06
  23730      1    137     66       10.30          0.1815E+06
  23731      1    137     67       10.48          0.1815E+06
  23732      1    137     68       10.28          0.1815E+06
  23733      1    137     69       10.78          0.1815E+06
  23734      1    137     70       10.52          0.1815E+06
  23735      1    137     71       10.02          0.1815E+06
  23736      1    137     72       9.850          0.1815E+06
  23737      1    137     73       9.940          0.1815E+06
  23738      1    137     74       10.27          0.1815E+06
  23739      1    137     75       9.530          0.1815E+06
  23740      1    137     76       9.210          0.1815E+06
  23741      1    137     77       8.810          0.1815E+06
  23742      1    137     78       7.300          0.1815E+06
  23743      1    137     79       7.730          0.1815E+06
  23744      1    137     80       6.730          0.1815E+06
  23745      1    137     81       6.760          0.1815E+06
  23746      1    137     82       6.150          0.1815E+06
  23747      1    137     83       7.690          0.1815E+06
  23748      1    137     84       5.960          0.1815E+06
  23749      1    137     85       5.570          0.1815E+06
  23750      1    137     86       6.050          0.1815E+06
  23751      1    137     87       5.980          0.1815E+06
  23752      1    137     88       5.880          0.1815E+06
  23753      1    137     89       6.650          0.1815E+06
  23754      1    137     90       7.500          0.1815E+06
  23755      1    137     91       7.570          0.1815E+06
  23756      1    137     92       8.020          0.1815E+06
  23757      1    137     93       10.21          0.1815E+06
  23758      1    137     94       10.63          0.1815E+06
  23759      1    137     95       11.18          0.1815E+06
  23760      1    137     96       11.55          0.1815E+06
  23761      1    137     97       11.69          0.1815E+06
  23762      1    137     98       12.14          0.1815E+06
  23763      1    137     99       13.05          0.1815E+06
  23764      1    137    100       13.17          0.1815E+06
  23765      1    137    101       13.77          0.1815E+06
  23766      1    137    102       14.82          0.1815E+06
  23767      1    137    103       16.27          0.1815E+06
  23768      1    137    104       17.07          0.1815E+06
  23769      1    137    105       18.72          0.1815E+06
  23770      1    137    106       20.12          0.1815E+06
  23771      1    137    107       21.93          0.1815E+06
  23772      1    137    108       23.65          0.1815E+06
  23773      1    137    109       26.44          0.1815E+06
  23774      1    137    110       27.95          0.1815E+06
  23775      1    137    111       31.57          0.1815E+06
  23776      1    137    112       33.25          0.1815E+06
  23777      1    137    113       34.36          0.1815E+06
  23778      1    137    114       35.43          0.1815E+06
  23779      1    137    115       36.74          0.1815E+06
  23780      1    137    116       37.68          0.1815E+06
  23781      1    137    117       38.83          0.1815E+06
  23782      1    137    118       38.83          0.1815E+06
  23783      1    137    119       37.90          0.1815E+06
  23784      1    137    120       36.58          0.1815E+06
  23785      1    137    121       36.90          0.1815E+06
  23786      1    137    122       36.81          0.1815E+06
  23787      1    137    123       36.25          0.1815E+06
  23788      1    137    124       35.18          0.1815E+06
  23789      1    137    125       35.31          0.1815E+06
  23790      1    137    126       34.84          0.1815E+06
  23791      1    137    127       33.81          0.1815E+06
  23792      1    137    128       33.59          0.1815E+06
  23793      1    137    129       33.25          0.1815E+06
  23794      1    137    130       32.79          0.1815E+06
  23795      1    137    131       32.02          0.1815E+06
  23796      1    137    132       29.68          0.1815E+06
  23797      1    137    133       25.39          0.1815E+06
  23798      1    137    134       27.93          0.1815E+06
  23799      1    137    135       28.87          0.1815E+06
  23800      1    137    136       28.35          0.1815E+06
  23801      1    137    137       26.30          0.1815E+06
  23802      1    137    138       22.20          0.1815E+06
  23803      1    137    139       27.30          0.1815E+06
  23804      1    137    140       30.10          0.1815E+06
  23805      1    137    141       30.70          0.1815E+06
  23806      1    137    142       30.80          0.1815E+06
  23807      1    137    143       30.80          0.1815E+06
  23808      1    137    144       26.40          0.1815E+06
  23809      1    137    145       19.50          0.1815E+06
  23810      1    137    146       19.20          0.1815E+06
  23811      1    137    147       20.40          0.1815E+06
  23812      1    137    148       22.30          0.1815E+06
  23813      1    137    149       27.50          0.1815E+06
  23814      1    137    150       29.70          0.1815E+06
  23815      1    137    151       31.70          0.1815E+06
  23816      1    137    152       34.70          0.1815E+06
  23817      1    137    153       37.40          0.1815E+06
  23818      1    137    154       38.80          0.1815E+06
  23819      1    137    155       40.00          0.1815E+06
  23820      1    137    156       41.60          0.1815E+06
  23821      1    137    157       43.00          0.1815E+06
  23822      1    137    158       43.70          0.1815E+06
  23823      1    137    159       43.60          0.1815E+06
  23824      1    137    160       43.30          0.1815E+06
  23825      1    137    161       42.30          0.1815E+06
  23826      1    137    162       41.60          0.1815E+06
  23827      1    137    163       40.20          0.1815E+06
  23828      1    137    164       39.10          0.1815E+06
  23829      1    137    165       38.80          0.1815E+06
  23830      1    137    166       39.40          0.1815E+06
  23831      1    137    167       40.70          0.1815E+06
  23832      1    137    168       42.60          0.1815E+06
  23833      1    137    169       43.00          0.1815E+06
  23834      1    137    170       43.00          0.1815E+06
  23835      1    137    171       43.10          0.1815E+06
  23836      1    137    172       43.00          0.1815E+06
  23837      1    137    173       42.60          0.1815E+06
  23838      1    137    174       41.40          0.1815E+06
  23839      1    138      1      -10.67          0.1815E+06
  23840      1    138      2      -11.67          0.1815E+06
  23841      1    138      3      -11.67          0.1815E+06
  23842      1    138      4      -11.67          0.1815E+06
  23843      1    138      5      -12.37          0.1815E+06
  23844      1    138      6      -13.37          0.1815E+06
  23845      1    138      7      -13.37          0.1815E+06
  23846      1    138      8      -13.96          0.1815E+06
  23847      1    138      9      -13.96          0.1815E+06
  23848      1    138     10      -14.32          0.1815E+06
  23849      1    138     11      -14.79          0.1815E+06
  23850      1    138     12      -14.71          0.1815E+06
  23851      1    138     13      -14.77          0.1815E+06
  23852      1    138     14      -14.77          0.1815E+06
  23853      1    138     15      -14.77          0.1815E+06
  23854      1    138     16      -14.47          0.1815E+06
  23855      1    138     17      -14.47          0.1815E+06
  23856      1    138     18      -14.51          0.1815E+06
  23857      1    138     19      -14.41          0.1815E+06
  23858      1    138     20      -14.27          0.1815E+06
  23859      1    138     21      -14.27          0.1815E+06
  23860      1    138     22      -14.17          0.1815E+06
  23861      1    138     23      -13.78          0.1815E+06
  23862      1    138     24      -13.67          0.1815E+06
  23863      1    138     25      -12.28          0.1815E+06
  23864      1    138     26      -12.28          0.1815E+06
  23865      1    138     27      -12.67          0.1815E+06
  23866      1    138     28      -12.17          0.1815E+06
  23867      1    138     29      -11.85          0.1815E+06
  23868      1    138     30      -11.57          0.1815E+06
  23869      1    138     31      -10.87          0.1815E+06
  23870      1    138     32      -10.87          0.1815E+06
  23871      1    138     33      -10.47          0.1815E+06
  23872      1    138     34      -9.960          0.1815E+06
  23873      1    138     35      -8.520          0.1815E+06
  23874      1    138     36      -6.480          0.1815E+06
  23875      1    138     37      -6.470          0.1815E+06
  23876      1    138     38      -6.470          0.1815E+06
  23877      1    138     39      -5.670          0.1815E+06
  23878      1    138     40      -5.070          0.1815E+06
  23879      1    138     41      -5.760          0.1815E+06
  23880      1    138     42      -5.460          0.1815E+06
  23881      1    138     43      -4.860          0.1815E+06
  23882      1    138     44      -4.860          0.1815E+06
  23883      1    138     45      -4.410          0.1815E+06
  23884      1    138     46      -4.500          0.1815E+06
  23885      1    138     47      -4.500          0.1815E+06
  23886      1    138     48      -4.310          0.1815E+06
  23887      1    138     49      -4.310          0.1815E+06
  23888      1    138     50      -3.760          0.1815E+06
  23889      1    138     51      -1.200          0.1815E+06
  23890      1    138     52      0.5600          0.1815E+06
  23891      1    138     53       1.570          0.1815E+06
  23892      1    138     54       3.570          0.1815E+06
  23893      1    138     55       3.570          0.1815E+06
  23894      1    138     56       6.980          0.1815E+06
  23895      1    138     57       7.090          0.1815E+06
  23896      1    138     58       7.650          0.1815E+06
  23897      1    138     59       8.320          0.1815E+06
  23898      1    138     60       8.900          0.1815E+06
  23899      1    138     61       8.850          0.1815E+06
  23900      1    138     62       9.520          0.1815E+06
  23901      1    138     63       9.520          0.1815E+06
  23902      1    138     64       9.850          0.1815E+06
  23903      1    138     65       9.940          0.1815E+06
  23904      1    138     66       9.840          0.1815E+06
  23905      1    138     67       10.64          0.1815E+06
  23906      1    138     68       10.51          0.1815E+06
  23907      1    138     69       10.77          0.1815E+06
  23908      1    138     70       12.47          0.1815E+06
  23909      1    138     71       9.940          0.1815E+06
  23910      1    138     72       9.820          0.1815E+06
  23911      1    138     73       9.680          0.1815E+06
  23912      1    138     74       10.67          0.1815E+06
  23913      1    138     75       9.970          0.1815E+06
  23914      1    138     76       9.180          0.1815E+06
  23915      1    138     77       8.900          0.1815E+06
  23916      1    138     78       8.810          0.1815E+06
  23917      1    138     79       9.230          0.1815E+06
  23918      1    138     80       7.730          0.1815E+06
  23919      1    138     81       7.230          0.1815E+06
  23920      1    138     82       6.210          0.1815E+06
  23921      1    138     83       5.940          0.1815E+06
  23922      1    138     84       5.710          0.1815E+06
  23923      1    138     85       5.710          0.1815E+06
  23924      1    138     86       6.050          0.1815E+06
  23925      1    138     87       5.920          0.1815E+06
  23926      1    138     88       6.570          0.1815E+06
  23927      1    138     89       8.690          0.1815E+06
  23928      1    138     90       9.760          0.1815E+06
  23929      1    138     91       9.470          0.1815E+06
  23930      1    138     92       9.560          0.1815E+06
  23931      1    138     93       10.05          0.1815E+06
  23932      1    138     94       11.10          0.1815E+06
  23933      1    138     95       11.86          0.1815E+06
  23934      1    138     96       12.06          0.1815E+06
  23935      1    138     97       12.44          0.1815E+06
  23936      1    138     98       12.85          0.1815E+06
  23937      1    138     99       13.53          0.1815E+06
  23938      1    138    100       13.94          0.1815E+06
  23939      1    138    101       14.35          0.1815E+06
  23940      1    138    102       15.17          0.1815E+06
  23941      1    138    103       15.46          0.1815E+06
  23942      1    138    104       16.88          0.1815E+06
  23943      1    138    105       17.95          0.1815E+06
  23944      1    138    106       19.60          0.1815E+06
  23945      1    138    107       21.20          0.1815E+06
  23946      1    138    108       23.28          0.1815E+06
  23947      1    138    109       25.82          0.1815E+06
  23948      1    138    110       27.86          0.1815E+06
  23949      1    138    111       31.52          0.1815E+06
  23950      1    138    112       33.16          0.1815E+06
  23951      1    138    113       34.88          0.1815E+06
  23952      1    138    114       36.40          0.1815E+06
  23953      1    138    115       37.75          0.1815E+06
  23954      1    138    116       38.97          0.1815E+06
  23955      1    138    117       38.75          0.1815E+06
  23956      1    138    118       37.90          0.1815E+06
  23957      1    138    119       36.88          0.1815E+06
  23958      1    138    120       37.04          0.1815E+06
  23959      1    138    121       37.54          0.1815E+06
  23960      1    138    122       37.68          0.1815E+06
  23961      1    138    123       36.40          0.1815E+06
  23962      1    138    124       35.56          0.1815E+06
  23963      1    138    125       34.25          0.1815E+06
  23964      1    138    126       33.29          0.1815E+06
  23965      1    138    127       32.65          0.1815E+06
  23966      1    138    128       31.12          0.1815E+06
  23967      1    138    129       30.75          0.1815E+06
  23968      1    138    130       29.57          0.1815E+06
  23969      1    138    131       27.75          0.1815E+06
  23970      1    138    132       23.23          0.1815E+06
  23971      1    138    133       25.11          0.1815E+06
  23972      1    138    134       27.22          0.1815E+06
  23973      1    138    135       26.78          0.1815E+06
  23974      1    138    136       24.07          0.1815E+06
  23975      1    138    137       20.70          0.1815E+06
  23976      1    138    138       22.70          0.1815E+06
  23977      1    138    139       28.20          0.1815E+06
  23978      1    138    140       30.00          0.1815E+06
  23979      1    138    141       30.10          0.1815E+06
  23980      1    138    142       30.00          0.1815E+06
  23981      1    138    143       22.20          0.1815E+06
  23982      1    138    144       18.80          0.1815E+06
  23983      1    138    145       25.10          0.1815E+06
  23984      1    138    146       31.10          0.1815E+06
  23985      1    138    147       33.40          0.1815E+06
  23986      1    138    148       33.50          0.1815E+06
  23987      1    138    149       34.10          0.1815E+06
  23988      1    138    150       32.90          0.1815E+06
  23989      1    138    151       32.80          0.1815E+06
  23990      1    138    152       35.20          0.1815E+06
  23991      1    138    153       38.20          0.1815E+06
  23992      1    138    154       40.70          0.1815E+06
  23993      1    138    155       42.60          0.1815E+06
  23994      1    138    156       43.60          0.1815E+06
  23995      1    138    157       44.10          0.1815E+06
  23996      1    138    158       44.40          0.1815E+06
  23997      1    138    159       44.40          0.1815E+06
  23998      1    138    160       44.10          0.1815E+06
  23999      1    138    161       43.80          0.1815E+06
  24000      1    138    162       42.30          0.1815E+06
  24001      1    138    163       40.90          0.1815E+06
  24002      1    138    164       39.70          0.1815E+06
  24003      1    138    165       39.00          0.1815E+06
  24004      1    138    166       38.20          0.1815E+06
  24005      1    138    167       38.00          0.1815E+06
  24006      1    138    168       39.50          0.1815E+06
  24007      1    138    169       41.40          0.1815E+06
  24008      1    138    170       41.60          0.1815E+06
  24009      1    138    171       41.80          0.1815E+06
  24010      1    138    172       40.90          0.1815E+06
  24011      1    138    173       40.70          0.1815E+06
  24012      1    138    174       40.10          0.1815E+06
  24013      1    139      1      -12.17          0.1815E+06
  24014      1    139      2      -12.37          0.1815E+06
  24015      1    139      3      -12.37          0.1815E+06
  24016      1    139      4      -12.07          0.1815E+06
  24017      1    139      5      -12.17          0.1815E+06
  24018      1    139      6      -13.37          0.1815E+06
  24019      1    139      7      -13.37          0.1815E+06
  24020      1    139      8      -13.96          0.1815E+06
  24021      1    139      9      -13.96          0.1815E+06
  24022      1    139     10      -14.32          0.1815E+06
  24023      1    139     11      -14.57          0.1815E+06
  24024      1    139     12      -14.57          0.1815E+06
  24025      1    139     13      -14.77          0.1815E+06
  24026      1    139     14      -14.76          0.1815E+06
  24027      1    139     15      -14.76          0.1815E+06
  24028      1    139     16      -14.56          0.1815E+06
  24029      1    139     17      -14.63          0.1815E+06
  24030      1    139     18      -14.78          0.1815E+06
  24031      1    139     19      -14.38          0.1815E+06
  24032      1    139     20      -14.09          0.1815E+06
  24033      1    139     21      -14.09          0.1815E+06
  24034      1    139     22      -13.98          0.1815E+06
  24035      1    139     23      -13.78          0.1815E+06
  24036      1    139     24      -12.48          0.1815E+06
  24037      1    139     25      -11.42          0.1815E+06
  24038      1    139     26      -11.42          0.1815E+06
  24039      1    139     27      -10.93          0.1815E+06
  24040      1    139     28      -11.33          0.1815E+06
  24041      1    139     29      -11.88          0.1815E+06
  24042      1    139     30      -11.37          0.1815E+06
  24043      1    139     31      -10.87          0.1815E+06
  24044      1    139     32      -10.87          0.1815E+06
  24045      1    139     33      -10.47          0.1815E+06
  24046      1    139     34      -9.960          0.1815E+06
  24047      1    139     35      -7.770          0.1815E+06
  24048      1    139     36      -7.070          0.1815E+06
  24049      1    139     37      -7.070          0.1815E+06
  24050      1    139     38      -7.070          0.1815E+06
  24051      1    139     39      -5.470          0.1815E+06
  24052      1    139     40      -5.270          0.1815E+06
  24053      1    139     41      -5.120          0.1815E+06
  24054      1    139     42      -5.220          0.1815E+06
  24055      1    139     43      -4.790          0.1815E+06
  24056      1    139     44      -4.790          0.1815E+06
  24057      1    139     45      -4.620          0.1815E+06
  24058      1    139     46      -4.560          0.1815E+06
  24059      1    139     47      -4.560          0.1815E+06
  24060      1    139     48      -4.260          0.1815E+06
  24061      1    139     49      -4.260          0.1815E+06
  24062      1    139     50      -3.960          0.1815E+06
  24063      1    139     51      -2.260          0.1815E+06
  24064      1    139     52      0.5600          0.1815E+06
  24065      1    139     53       1.560          0.1815E+06
  24066      1    139     54       3.570          0.1815E+06
  24067      1    139     55       3.570          0.1815E+06
  24068      1    139     56       6.940          0.1815E+06
  24069      1    139     57       8.100          0.1815E+06
  24070      1    139     58       7.710          0.1815E+06
  24071      1    139     59       8.390          0.1815E+06
  24072      1    139     60       8.810          0.1815E+06
  24073      1    139     61       8.780          0.1815E+06
  24074      1    139     62       9.520          0.1815E+06
  24075      1    139     63       10.06          0.1815E+06
  24076      1    139     64       10.23          0.1815E+06
  24077      1    139     65       10.28          0.1815E+06
  24078      1    139     66       10.42          0.1815E+06
  24079      1    139     67       10.31          0.1815E+06
  24080      1    139     68       10.84          0.1815E+06
  24081      1    139     69       10.21          0.1815E+06
  24082      1    139     70       10.39          0.1815E+06
  24083      1    139     71       10.23          0.1815E+06
  24084      1    139     72       10.01          0.1815E+06
  24085      1    139     73       9.750          0.1815E+06
  24086      1    139     74       9.890          0.1815E+06
  24087      1    139     75       9.520          0.1815E+06
  24088      1    139     76       9.440          0.1815E+06
  24089      1    139     77       9.090          0.1815E+06
  24090      1    139     78       8.750          0.1815E+06
  24091      1    139     79       8.850          0.1815E+06
  24092      1    139     80       8.440          0.1815E+06
  24093      1    139     81       6.510          0.1815E+06
  24094      1    139     82       7.230          0.1815E+06
  24095      1    139     83       6.400          0.1815E+06
  24096      1    139     84       5.880          0.1815E+06
  24097      1    139     85       6.440          0.1815E+06
  24098      1    139     86       6.090          0.1815E+06
  24099      1    139     87       5.920          0.1815E+06
  24100      1    139     88       6.210          0.1815E+06
  24101      1    139     89       9.650          0.1815E+06
  24102      1    139     90       10.60          0.1815E+06
  24103      1    139     91       10.65          0.1815E+06
  24104      1    139     92       10.73          0.1815E+06
  24105      1    139     93       11.06          0.1815E+06
  24106      1    139     94       11.27          0.1815E+06
  24107      1    139     95       12.00          0.1815E+06
  24108      1    139     96       12.52          0.1815E+06
  24109      1    139     97       12.35          0.1815E+06
  24110      1    139     98       12.88          0.1815E+06
  24111      1    139     99       14.10          0.1815E+06
  24112      1    139    100       14.01          0.1815E+06
  24113      1    139    101       14.35          0.1815E+06
  24114      1    139    102       14.38          0.1815E+06
  24115      1    139    103       15.64          0.1815E+06
  24116      1    139    104       16.18          0.1815E+06
  24117      1    139    105       17.43          0.1815E+06
  24118      1    139    106       18.82          0.1815E+06
  24119      1    139    107       20.89          0.1815E+06
  24120      1    139    108       23.21          0.1815E+06
  24121      1    139    109       26.17          0.1815E+06
  24122      1    139    110       28.62          0.1815E+06
  24123      1    139    111       31.56          0.1815E+06
  24124      1    139    112       33.88          0.1815E+06
  24125      1    139    113       35.40          0.1815E+06
  24126      1    139    114       37.31          0.1815E+06
  24127      1    139    115       38.04          0.1815E+06
  24128      1    139    116       37.65          0.1815E+06
  24129      1    139    117       37.13          0.1815E+06
  24130      1    139    118       37.47          0.1815E+06
  24131      1    139    119       39.11          0.1815E+06
  24132      1    139    120       39.25          0.1815E+06
  24133      1    139    121       38.22          0.1815E+06
  24134      1    139    122       37.59          0.1815E+06
  24135      1    139    123       36.24          0.1815E+06
  24136      1    139    124       34.15          0.1815E+06
  24137      1    139    125       32.24          0.1815E+06
  24138      1    139    126       29.78          0.1815E+06
  24139      1    139    127       28.29          0.1815E+06
  24140      1    139    128       26.54          0.1815E+06
  24141      1    139    129       23.64          0.1815E+06
  24142      1    139    130       22.95          0.1815E+06
  24143      1    139    131       20.80          0.1815E+06
  24144      1    139    132       19.46          0.1815E+06
  24145      1    139    133       25.25          0.1815E+06
  24146      1    139    134       25.37          0.1815E+06
  24147      1    139    135       23.70          0.1815E+06
  24148      1    139    136       22.36          0.1815E+06
  24149      1    139    137       19.52          0.1815E+06
  24150      1    139    138       23.61          0.1815E+06
  24151      1    139    139       25.61          0.1815E+06
  24152      1    139    140       26.20          0.1815E+06
  24153      1    139    141       25.30          0.1815E+06
  24154      1    139    142       21.50          0.1815E+06
  24155      1    139    143       18.90          0.1815E+06
  24156      1    139    144       26.50          0.1815E+06
  24157      1    139    145       30.30          0.1815E+06
  24158      1    139    146       33.40          0.1815E+06
  24159      1    139    147       34.60          0.1815E+06
  24160      1    139    148       34.90          0.1815E+06
  24161      1    139    149       34.90          0.1815E+06
  24162      1    139    150       34.20          0.1815E+06
  24163      1    139    151       34.80          0.1815E+06
  24164      1    139    152       37.10          0.1815E+06
  24165      1    139    153       40.20          0.1815E+06
  24166      1    139    154       43.00          0.1815E+06
  24167      1    139    155       44.80          0.1815E+06
  24168      1    139    156       45.30          0.1815E+06
  24169      1    139    157       45.40          0.1815E+06
  24170      1    139    158       45.10          0.1815E+06
  24171      1    139    159       45.20          0.1815E+06
  24172      1    139    160       45.20          0.1815E+06
  24173      1    139    161       44.50          0.1815E+06
  24174      1    139    162       42.80          0.1815E+06
  24175      1    139    163       41.60          0.1815E+06
  24176      1    139    164       40.80          0.1815E+06
  24177      1    139    165       39.80          0.1815E+06
  24178      1    139    166       38.40          0.1815E+06
  24179      1    139    167       37.60          0.1815E+06
  24180      1    139    168       37.50          0.1815E+06
  24181      1    139    169       38.00          0.1815E+06
  24182      1    139    170       38.50          0.1815E+06
  24183      1    139    171       39.00          0.1815E+06
  24184      1    139    172       39.00          0.1815E+06
  24185      1    139    173       39.10          0.1815E+06
  24186      1    139    174       39.20          0.1815E+06
  24187      1    140      1      -12.17          0.1815E+06
  24188      1    140      2      -12.37          0.1815E+06
  24189      1    140      3      -12.37          0.1815E+06
  24190      1    140      4      -12.07          0.1815E+06
  24191      1    140      5      -12.67          0.1815E+06
  24192      1    140      6      -12.57          0.1815E+06
  24193      1    140      7      -13.67          0.1815E+06
  24194      1    140      8      -13.87          0.1815E+06
  24195      1    140      9      -13.87          0.1815E+06
  24196      1    140     10      -14.07          0.1815E+06
  24197      1    140     11      -14.50          0.1815E+06
  24198      1    140     12      -14.42          0.1815E+06
  24199      1    140     13      -14.56          0.1815E+06
  24200      1    140     14      -14.68          0.1815E+06
  24201      1    140     15      -14.68          0.1815E+06
  24202      1    140     16      -14.48          0.1815E+06
  24203      1    140     17      -14.48          0.1815E+06
  24204      1    140     18      -14.43          0.1815E+06
  24205      1    140     19      -14.12          0.1815E+06
  24206      1    140     20      -13.68          0.1815E+06
  24207      1    140     21      -13.68          0.1815E+06
  24208      1    140     22      -13.78          0.1815E+06
  24209      1    140     23      -13.75          0.1815E+06
  24210      1    140     24      -13.48          0.1815E+06
  24211      1    140     25      -11.42          0.1815E+06
  24212      1    140     26      -11.42          0.1815E+06
  24213      1    140     27      -10.93          0.1815E+06
  24214      1    140     28      -11.33          0.1815E+06
  24215      1    140     29      -11.88          0.1815E+06
  24216      1    140     30      -10.98          0.1815E+06
  24217      1    140     31      -10.38          0.1815E+06
  24218      1    140     32      -10.38          0.1815E+06
  24219      1    140     33      -9.880          0.1815E+06
  24220      1    140     34      -9.680          0.1815E+06
  24221      1    140     35      -8.380          0.1815E+06
  24222      1    140     36      -5.880          0.1815E+06
  24223      1    140     37      -4.780          0.1815E+06
  24224      1    140     38      -4.780          0.1815E+06
  24225      1    140     39      -5.680          0.1815E+06
  24226      1    140     40      -4.970          0.1815E+06
  24227      1    140     41      -5.180          0.1815E+06
  24228      1    140     42      -5.320          0.1815E+06
  24229      1    140     43      -4.770          0.1815E+06
  24230      1    140     44      -4.770          0.1815E+06
  24231      1    140     45      -4.860          0.1815E+06
  24232      1    140     46      -4.700          0.1815E+06
  24233      1    140     47      -4.520          0.1815E+06
  24234      1    140     48      -4.060          0.1815E+06
  24235      1    140     49      -4.060          0.1815E+06
  24236      1    140     50      -3.560          0.1815E+06
  24237      1    140     51      -2.260          0.1815E+06
  24238      1    140     52      0.5600          0.1815E+06
  24239      1    140     53       1.560          0.1815E+06
  24240      1    140     54       5.570          0.1815E+06
  24241      1    140     55       5.570          0.1815E+06
  24242      1    140     56       7.580          0.1815E+06
  24243      1    140     57       7.840          0.1815E+06
  24244      1    140     58       7.550          0.1815E+06
  24245      1    140     59       8.230          0.1815E+06
  24246      1    140     60       8.310          0.1815E+06
  24247      1    140     61       9.270          0.1815E+06
  24248      1    140     62       9.360          0.1815E+06
  24249      1    140     63       10.02          0.1815E+06
  24250      1    140     64       9.890          0.1815E+06
  24251      1    140     65       10.15          0.1815E+06
  24252      1    140     66       10.26          0.1815E+06
  24253      1    140     67       10.39          0.1815E+06
  24254      1    140     68       10.68          0.1815E+06
  24255      1    140     69       10.38          0.1815E+06
  24256      1    140     70       10.10          0.1815E+06
  24257      1    140     71       12.81          0.1815E+06
  24258      1    140     72       10.19          0.1815E+06
  24259      1    140     73       10.18          0.1815E+06
  24260      1    140     74       9.820          0.1815E+06
  24261      1    140     75       9.930          0.1815E+06
  24262      1    140     76       9.600          0.1815E+06
  24263      1    140     77       9.320          0.1815E+06
  24264      1    140     78       9.070          0.1815E+06
  24265      1    140     79       8.820          0.1815E+06
  24266      1    140     80       8.690          0.1815E+06
  24267      1    140     81       8.310          0.1815E+06
  24268      1    140     82       7.550          0.1815E+06
  24269      1    140     83       5.750          0.1815E+06
  24270      1    140     84       6.210          0.1815E+06
  24271      1    140     85       6.260          0.1815E+06
  24272      1    140     86       6.780          0.1815E+06
  24273      1    140     87       6.150          0.1815E+06
  24274      1    140     88       7.760          0.1815E+06
  24275      1    140     89       10.61          0.1815E+06
  24276      1    140     90       11.11          0.1815E+06
  24277      1    140     91       11.10          0.1815E+06
  24278      1    140     92       11.51          0.1815E+06
  24279      1    140     93       11.85          0.1815E+06
  24280      1    140     94       11.77          0.1815E+06
  24281      1    140     95       12.10          0.1815E+06
  24282      1    140     96       12.38          0.1815E+06
  24283      1    140     97       12.01          0.1815E+06
  24284      1    140     98       12.34          0.1815E+06
  24285      1    140     99       12.77          0.1815E+06
  24286      1    140    100       13.03          0.1815E+06
  24287      1    140    101       13.19          0.1815E+06
  24288      1    140    102       14.52          0.1815E+06
  24289      1    140    103       15.00          0.1815E+06
  24290      1    140    104       15.84          0.1815E+06
  24291      1    140    105       16.98          0.1815E+06
  24292      1    140    106       18.56          0.1815E+06
  24293      1    140    107       21.30          0.1815E+06
  24294      1    140    108       24.46          0.1815E+06
  24295      1    140    109       27.23          0.1815E+06
  24296      1    140    110       29.40          0.1815E+06
  24297      1    140    111       30.54          0.1815E+06
  24298      1    140    112       33.18          0.1815E+06
  24299      1    140    113       35.00          0.1815E+06
  24300      1    140    114       35.75          0.1815E+06
  24301      1    140    115       36.83          0.1815E+06
  24302      1    140    116       37.77          0.1815E+06
  24303      1    140    117       38.34          0.1815E+06
  24304      1    140    118       38.52          0.1815E+06
  24305      1    140    119       38.20          0.1815E+06
  24306      1    140    120       37.56          0.1815E+06
  24307      1    140    121       36.86          0.1815E+06
  24308      1    140    122       35.84          0.1815E+06
  24309      1    140    123       33.95          0.1815E+06
  24310      1    140    124       32.20          0.1815E+06
  24311      1    140    125       30.79          0.1815E+06
  24312      1    140    126       29.60          0.1815E+06
  24313      1    140    127       28.72          0.1815E+06
  24314      1    140    128       28.07          0.1815E+06
  24315      1    140    129       27.21          0.1815E+06
  24316      1    140    130       24.80          0.1815E+06
  24317      1    140    131       22.23          0.1815E+06
  24318      1    140    132       15.46          0.1815E+06
  24319      1    140    133       23.55          0.1815E+06
  24320      1    140    134       22.54          0.1815E+06
  24321      1    140    135       21.53          0.1815E+06
  24322      1    140    136       21.18          0.1815E+06
  24323      1    140    137       16.62          0.1815E+06
  24324      1    140    138       21.12          0.1815E+06
  24325      1    140    139       21.42          0.1815E+06
  24326      1    140    140       11.79          0.1815E+06
  24327      1    140    141       12.80          0.1815E+06
  24328      1    140    142       19.50          0.1815E+06
  24329      1    140    143       28.20          0.1815E+06
  24330      1    140    144       29.80          0.1815E+06
  24331      1    140    145       31.30          0.1815E+06
  24332      1    140    146       33.30          0.1815E+06
  24333      1    140    147       34.30          0.1815E+06
  24334      1    140    148       35.00          0.1815E+06
  24335      1    140    149       36.20          0.1815E+06
  24336      1    140    150       35.70          0.1815E+06
  24337      1    140    151       36.50          0.1815E+06
  24338      1    140    152       39.40          0.1815E+06
  24339      1    140    153       41.80          0.1815E+06
  24340      1    140    154       44.20          0.1815E+06
  24341      1    140    155       45.90          0.1815E+06
  24342      1    140    156       46.20          0.1815E+06
  24343      1    140    157       45.90          0.1815E+06
  24344      1    140    158       45.60          0.1815E+06
  24345      1    140    159       45.70          0.1815E+06
  24346      1    140    160       45.60          0.1815E+06
  24347      1    140    161       44.80          0.1815E+06
  24348      1    140    162       43.50          0.1815E+06
  24349      1    140    163       42.10          0.1815E+06
  24350      1    140    164       41.40          0.1815E+06
  24351      1    140    165       40.30          0.1815E+06
  24352      1    140    166       39.10          0.1815E+06
  24353      1    140    167       37.80          0.1815E+06
  24354      1    140    168       37.00          0.1815E+06
  24355      1    140    169       36.20          0.1815E+06
  24356      1    140    170       35.80          0.1815E+06
  24357      1    140    171       36.80          0.1815E+06
  24358      1    140    172       37.70          0.1815E+06
  24359      1    140    173       38.00          0.1815E+06
  24360      1    140    174       37.90          0.1815E+06
  24361      1    141      1      -12.17          0.1815E+06
  24362      1    141      2      -12.37          0.1815E+06
  24363      1    141      3      -12.37          0.1815E+06
  24364      1    141      4      -12.07          0.1815E+06
  24365      1    141      5      -12.67          0.1815E+06
  24366      1    141      6      -12.57          0.1815E+06
  24367      1    141      7      -13.67          0.1815E+06
  24368      1    141      8      -13.87          0.1815E+06
  24369      1    141      9      -13.87          0.1815E+06
  24370      1    141     10      -14.07          0.1815E+06
  24371      1    141     11      -14.50          0.1815E+06
  24372      1    141     12      -14.42          0.1815E+06
  24373      1    141     13      -14.56          0.1815E+06
  24374      1    141     14      -14.68          0.1815E+06
  24375      1    141     15      -14.68          0.1815E+06
  24376      1    141     16      -14.48          0.1815E+06
  24377      1    141     17      -14.48          0.1815E+06
  24378      1    141     18      -14.43          0.1815E+06
  24379      1    141     19      -14.12          0.1815E+06
  24380      1    141     20      -13.68          0.1815E+06
  24381      1    141     21      -13.68          0.1815E+06
  24382      1    141     22      -13.78          0.1815E+06
  24383      1    141     23      -13.75          0.1815E+06
  24384      1    141     24      -13.48          0.1815E+06
  24385      1    141     25      -11.42          0.1815E+06
  24386      1    141     26      -11.42          0.1815E+06
  24387      1    141     27      -10.93          0.1815E+06
  24388      1    141     28      -11.33          0.1815E+06
  24389      1    141     29      -11.88          0.1815E+06
  24390      1    141     30      -10.98          0.1815E+06
  24391      1    141     31      -10.38          0.1815E+06
  24392      1    141     32      -10.38          0.1815E+06
  24393      1    141     33      -9.880          0.1815E+06
  24394      1    141     34      -9.680          0.1815E+06
  24395      1    141     35      -8.380          0.1815E+06
  24396      1    141     36      -5.880          0.1815E+06
  24397      1    141     37      -4.780          0.1815E+06
  24398      1    141     38      -4.780          0.1815E+06
  24399      1    141     39      -5.680          0.1815E+06
  24400      1    141     40      -4.970          0.1815E+06
  24401      1    141     41      -5.180          0.1815E+06
  24402      1    141     42      -5.320          0.1815E+06
  24403      1    141     43      -4.770          0.1815E+06
  24404      1    141     44      -4.770          0.1815E+06
  24405      1    141     45      -4.860          0.1815E+06
  24406      1    141     46      -4.700          0.1815E+06
  24407      1    141     47      -4.520          0.1815E+06
  24408      1    141     48      -4.060          0.1815E+06
  24409      1    141     49      -4.060          0.1815E+06
  24410      1    141     50      -3.560          0.1815E+06
  24411      1    141     51      -2.260          0.1815E+06
  24412      1    141     52      0.5600          0.1815E+06
  24413      1    141     53       1.560          0.1815E+06
  24414      1    141     54       5.570          0.1815E+06
  24415      1    141     55       5.570          0.1815E+06
  24416      1    141     56       7.580          0.1815E+06
  24417      1    141     57       9.270          0.1815E+06
  24418      1    141     58       7.610          0.1815E+06
  24419      1    141     59       7.530          0.1815E+06
  24420      1    141     60       8.190          0.1815E+06
  24421      1    141     61       8.460          0.1815E+06
  24422      1    141     62       9.680          0.1815E+06
  24423      1    141     63       10.50          0.1815E+06
  24424      1    141     64       10.06          0.1815E+06
  24425      1    141     65       10.14          0.1815E+06
  24426      1    141     66       11.39          0.1815E+06
  24427      1    141     67       9.850          0.1815E+06
  24428      1    141     68       10.80          0.1815E+06
  24429      1    141     69       10.27          0.1815E+06
  24430      1    141     70       10.17          0.1815E+06
  24431      1    141     71       10.13          0.1815E+06
  24432      1    141     72       10.17          0.1815E+06
  24433      1    141     73       10.27          0.1815E+06
  24434      1    141     74       10.43          0.1815E+06
  24435      1    141     75       10.03          0.1815E+06
  24436      1    141     76       9.980          0.1815E+06
  24437      1    141     77       9.600          0.1815E+06
  24438      1    141     78       9.460          0.1815E+06
  24439      1    141     79       9.220          0.1815E+06
  24440      1    141     80       8.860          0.1815E+06
  24441      1    141     81       9.220          0.1815E+06
  24442      1    141     82       8.220          0.1815E+06
  24443      1    141     83       7.480          0.1815E+06
  24444      1    141     84       6.880          0.1815E+06
  24445      1    141     85       6.510          0.1815E+06
  24446      1    141     86       6.550          0.1815E+06
  24447      1    141     87       6.780          0.1815E+06
  24448      1    141     88       8.550          0.1815E+06
  24449      1    141     89       10.77          0.1815E+06
  24450      1    141     90       11.26          0.1815E+06
  24451      1    141     91       11.47          0.1815E+06
  24452      1    141     92       12.01          0.1815E+06
  24453      1    141     93       11.97          0.1815E+06
  24454      1    141     94       11.68          0.1815E+06
  24455      1    141     95       12.07          0.1815E+06
  24456      1    141     96       12.02          0.1815E+06
  24457      1    141     97       12.03          0.1815E+06
  24458      1    141     98       12.06          0.1815E+06
  24459      1    141     99       12.31          0.1815E+06
  24460      1    141    100       12.57          0.1815E+06
  24461      1    141    101       13.23          0.1815E+06
  24462      1    141    102       14.13          0.1815E+06
  24463      1    141    103       14.88          0.1815E+06
  24464      1    141    104       15.42          0.1815E+06
  24465      1    141    105       16.69          0.1815E+06
  24466      1    141    106       17.95          0.1815E+06
  24467      1    141    107       20.60          0.1815E+06
  24468      1    141    108       25.06          0.1815E+06
  24469      1    141    109       28.78          0.1815E+06
  24470      1    141    110       29.67          0.1815E+06
  24471      1    141    111       30.32          0.1815E+06
  24472      1    141    112       31.53          0.1815E+06
  24473      1    141    113       32.90          0.1815E+06
  24474      1    141    114       35.09          0.1815E+06
  24475      1    141    115       36.86          0.1815E+06
  24476      1    141    116       37.04          0.1815E+06
  24477      1    141    117       36.77          0.1815E+06
  24478      1    141    118       36.33          0.1815E+06
  24479      1    141    119       36.04          0.1815E+06
  24480      1    141    120       34.40          0.1815E+06
  24481      1    141    121       33.45          0.1815E+06
  24482      1    141    122       32.00          0.1815E+06
  24483      1    141    123       30.72          0.1815E+06
  24484      1    141    124       29.88          0.1815E+06
  24485      1    141    125       29.25          0.1815E+06
  24486      1    141    126       28.23          0.1815E+06
  24487      1    141    127       27.88          0.1815E+06
  24488      1    141    128       27.64          0.1815E+06
  24489      1    141    129       27.37          0.1815E+06
  24490      1    141    130       26.28          0.1815E+06
  24491      1    141    131       23.89          0.1815E+06
  24492      1    141    132       15.19          0.1815E+06
  24493      1    141    133       18.39          0.1815E+06
  24494      1    141    134       19.15          0.1815E+06
  24495      1    141    135       18.88          0.1815E+06
  24496      1    141    136       18.45          0.1815E+06
  24497      1    141    137       16.77          0.1815E+06
  24498      1    141    138       16.44          0.1815E+06
  24499      1    141    139       11.68          0.1815E+06
  24500      1    141    140       19.59          0.1815E+06
  24501      1    141    141       20.93          0.1815E+06
  24502      1    141    142       23.90          0.1815E+06
  24503      1    141    143       28.00          0.1815E+06
  24504      1    141    144       29.20          0.1815E+06
  24505      1    141    145       30.90          0.1815E+06
  24506      1    141    146       31.80          0.1815E+06
  24507      1    141    147       33.50          0.1815E+06
  24508      1    141    148       35.60          0.1815E+06
  24509      1    141    149       36.70          0.1815E+06
  24510      1    141    150       37.30          0.1815E+06
  24511      1    141    151       38.20          0.1815E+06
  24512      1    141    152       40.50          0.1815E+06
  24513      1    141    153       42.20          0.1815E+06
  24514      1    141    154       44.40          0.1815E+06
  24515      1    141    155       46.10          0.1815E+06
  24516      1    141    156       46.30          0.1815E+06
  24517      1    141    157       46.00          0.1815E+06
  24518      1    141    158       45.90          0.1815E+06
  24519      1    141    159       45.80          0.1815E+06
  24520      1    141    160       45.40          0.1815E+06
  24521      1    141    161       44.70          0.1815E+06
  24522      1    141    162       43.80          0.1815E+06
  24523      1    141    163       42.80          0.1815E+06
  24524      1    141    164       41.90          0.1815E+06
  24525      1    141    165       41.20          0.1815E+06
  24526      1    141    166       39.90          0.1815E+06
  24527      1    141    167       38.50          0.1815E+06
  24528      1    141    168       37.30          0.1815E+06
  24529      1    141    169       36.30          0.1815E+06
  24530      1    141    170       35.00          0.1815E+06
  24531      1    141    171       35.40          0.1815E+06
  24532      1    141    172       36.10          0.1815E+06
  24533      1    141    173       36.60          0.1815E+06
  24534      1    141    174       36.80          0.1815E+06
  24535      1    142      1      -11.77          0.1815E+06
  24536      1    142      2      -11.67          0.1815E+06
  24537      1    142      3      -11.67          0.1815E+06
  24538      1    142      4      -12.47          0.1815E+06
  24539      1    142      5      -13.17          0.1815E+06
  24540      1    142      6      -13.37          0.1815E+06
  24541      1    142      7      -13.68          0.1815E+06
  24542      1    142      8      -13.53          0.1815E+06
  24543      1    142      9      -13.53          0.1815E+06
  24544      1    142     10      -13.58          0.1815E+06
  24545      1    142     11      -14.18          0.1815E+06
  24546      1    142     12      -14.18          0.1815E+06
  24547      1    142     13      -14.38          0.1815E+06
  24548      1    142     14      -14.50          0.1815E+06
  24549      1    142     15      -14.50          0.1815E+06
  24550      1    142     16      -14.33          0.1815E+06
  24551      1    142     17      -14.13          0.1815E+06
  24552      1    142     18      -14.18          0.1815E+06
  24553      1    142     19      -14.08          0.1815E+06
  24554      1    142     20      -14.08          0.1815E+06
  24555      1    142     21      -14.08          0.1815E+06
  24556      1    142     22      -13.78          0.1815E+06
  24557      1    142     23      -13.75          0.1815E+06
  24558      1    142     24      -13.48          0.1815E+06
  24559      1    142     25      -12.08          0.1815E+06
  24560      1    142     26      -12.08          0.1815E+06
  24561      1    142     27      -11.58          0.1815E+06
  24562      1    142     28      -11.75          0.1815E+06
  24563      1    142     29      -11.68          0.1815E+06
  24564      1    142     30      -10.08          0.1815E+06
  24565      1    142     31      -10.08          0.1815E+06
  24566      1    142     32      -10.08          0.1815E+06
  24567      1    142     33      -10.28          0.1815E+06
  24568      1    142     34      -8.780          0.1815E+06
  24569      1    142     35      -6.980          0.1815E+06
  24570      1    142     36      -5.580          0.1815E+06
  24571      1    142     37      -5.280          0.1815E+06
  24572      1    142     38      -5.280          0.1815E+06
  24573      1    142     39      -5.080          0.1815E+06
  24574      1    142     40      -6.180          0.1815E+06
  24575      1    142     41      -5.770          0.1815E+06
  24576      1    142     42      -5.550          0.1815E+06
  24577      1    142     43      -5.170          0.1815E+06
  24578      1    142     44      -5.170          0.1815E+06
  24579      1    142     45      -5.050          0.1815E+06
  24580      1    142     46      -4.700          0.1815E+06
  24581      1    142     47      -4.520          0.1815E+06
  24582      1    142     48      -4.060          0.1815E+06
  24583      1    142     49      -4.060          0.1815E+06
  24584      1    142     50      -3.560          0.1815E+06
  24585      1    142     51      -1.910          0.1815E+06
  24586      1    142     52      0.5600          0.1815E+06
  24587      1    142     53       1.570          0.1815E+06
  24588      1    142     54       4.570          0.1815E+06
  24589      1    142     55       4.570          0.1815E+06
  24590      1    142     56       5.570          0.1815E+06
  24591      1    142     57       10.47          0.1815E+06
  24592      1    142     58       8.050          0.1815E+06
  24593      1    142     59       7.610          0.1815E+06
  24594      1    142     60       8.720          0.1815E+06
  24595      1    142     61       9.020          0.1815E+06
  24596      1    142     62       9.280          0.1815E+06
  24597      1    142     63       9.670          0.1815E+06
  24598      1    142     64       9.600          0.1815E+06
  24599      1    142     65       10.40          0.1815E+06
  24600      1    142     66       10.56          0.1815E+06
  24601      1    142     67       11.14          0.1815E+06
  24602      1    142     68       10.05          0.1815E+06
  24603      1    142     69       10.82          0.1815E+06
  24604      1    142     70       10.61          0.1815E+06
  24605      1    142     71       10.61          0.1815E+06
  24606      1    142     72       10.27          0.1815E+06
  24607      1    142     73       10.13          0.1815E+06
  24608      1    142     74       11.77          0.1815E+06
  24609      1    142     75       10.22          0.1815E+06
  24610      1    142     76       9.930          0.1815E+06
  24611      1    142     77       9.810          0.1815E+06
  24612      1    142     78       9.730          0.1815E+06
  24613      1    142     79       9.600          0.1815E+06
  24614      1    142     80       9.350          0.1815E+06
  24615      1    142     81       8.810          0.1815E+06
  24616      1    142     82       8.890          0.1815E+06
  24617      1    142     83       7.670          0.1815E+06
  24618      1    142     84       7.510          0.1815E+06
  24619      1    142     85       6.760          0.1815E+06
  24620      1    142     86       6.650          0.1815E+06
  24621      1    142     87       6.880          0.1815E+06
  24622      1    142     88       9.060          0.1815E+06
  24623      1    142     89       10.56          0.1815E+06
  24624      1    142     90       10.80          0.1815E+06
  24625      1    142     91       11.53          0.1815E+06
  24626      1    142     92       11.89          0.1815E+06
  24627      1    142     93       12.26          0.1815E+06
  24628      1    142     94       11.88          0.1815E+06
  24629      1    142     95       11.67          0.1815E+06
  24630      1    142     96       11.80          0.1815E+06
  24631      1    142     97       11.96          0.1815E+06
  24632      1    142     98       12.15          0.1815E+06
  24633      1    142     99       12.43          0.1815E+06
  24634      1    142    100       12.68          0.1815E+06
  24635      1    142    101       12.92          0.1815E+06
  24636      1    142    102       13.51          0.1815E+06
  24637      1    142    103       13.75          0.1815E+06
  24638      1    142    104       14.96          0.1815E+06
  24639      1    142    105       16.37          0.1815E+06
  24640      1    142    106       17.36          0.1815E+06
  24641      1    142    107       19.55          0.1815E+06
  24642      1    142    108       23.25          0.1815E+06
  24643      1    142    109       26.31          0.1815E+06
  24644      1    142    110       27.54          0.1815E+06
  24645      1    142    111       29.87          0.1815E+06
  24646      1    142    112       31.69          0.1815E+06
  24647      1    142    113       33.72          0.1815E+06
  24648      1    142    114       34.65          0.1815E+06
  24649      1    142    115       34.06          0.1815E+06
  24650      1    142    116       33.36          0.1815E+06
  24651      1    142    117       32.18          0.1815E+06
  24652      1    142    118       31.03          0.1815E+06
  24653      1    142    119       30.75          0.1815E+06
  24654      1    142    120       29.97          0.1815E+06
  24655      1    142    121       29.30          0.1815E+06
  24656      1    142    122       28.37          0.1815E+06
  24657      1    142    123       28.15          0.1815E+06
  24658      1    142    124       27.70          0.1815E+06
  24659      1    142    125       26.88          0.1815E+06
  24660      1    142    126       25.39          0.1815E+06
  24661      1    142    127       26.96          0.1815E+06
  24662      1    142    128       27.84          0.1815E+06
  24663      1    142    129       27.00          0.1815E+06
  24664      1    142    130       25.18          0.1815E+06
  24665      1    142    131       22.46          0.1815E+06
  24666      1    142    132       15.51          0.1815E+06
  24667      1    142    133       11.57          0.1815E+06
  24668      1    142    134       14.59          0.1815E+06
  24669      1    142    135       14.63          0.1815E+06
  24670      1    142    136       14.57          0.1815E+06
  24671      1    142    137       11.32          0.1815E+06
  24672      1    142    138       9.930          0.1815E+06
  24673      1    142    139       9.900          0.1815E+06
  24674      1    142    140       15.06          0.1815E+06
  24675      1    142    141       21.03          0.1815E+06
  24676      1    142    142       24.08          0.1815E+06
  24677      1    142    143       26.20          0.1815E+06
  24678      1    142    144       28.10          0.1815E+06
  24679      1    142    145       29.80          0.1815E+06
  24680      1    142    146       31.70          0.1815E+06
  24681      1    142    147       33.50          0.1815E+06
  24682      1    142    148       35.60          0.1815E+06
  24683      1    142    149       37.30          0.1815E+06
  24684      1    142    150       38.30          0.1815E+06
  24685      1    142    151       39.40          0.1815E+06
  24686      1    142    152       40.90          0.1815E+06
  24687      1    142    153       42.20          0.1815E+06
  24688      1    142    154       43.80          0.1815E+06
  24689      1    142    155       45.10          0.1815E+06
  24690      1    142    156       45.60          0.1815E+06
  24691      1    142    157       45.80          0.1815E+06
  24692      1    142    158       45.80          0.1815E+06
  24693      1    142    159       45.70          0.1815E+06
  24694      1    142    160       45.20          0.1815E+06
  24695      1    142    161       44.40          0.1815E+06
  24696      1    142    162       43.80          0.1815E+06
  24697      1    142    163       43.30          0.1815E+06
  24698      1    142    164       42.90          0.1815E+06
  24699      1    142    165       42.20          0.1815E+06
  24700      1    142    166       41.20          0.1815E+06
  24701      1    142    167       39.60          0.1815E+06
  24702      1    142    168       38.30          0.1815E+06
  24703      1    142    169       37.00          0.1815E+06
  24704      1    142    170       35.60          0.1815E+06
  24705      1    142    171       34.10          0.1815E+06
  24706      1    142    172       34.20          0.1815E+06
  24707      1    142    173       34.50          0.1815E+06
  24708      1    142    174       35.50          0.1815E+06
  24709      1    143      1      -12.07          0.1815E+06
  24710      1    143      2      -12.27          0.1815E+06
  24711      1    143      3      -12.27          0.1815E+06
  24712      1    143      4      -12.87          0.1815E+06
  24713      1    143      5      -12.92          0.1815E+06
  24714      1    143      6      -13.08          0.1815E+06
  24715      1    143      7      -13.18          0.1815E+06
  24716      1    143      8      -13.08          0.1815E+06
  24717      1    143      9      -13.08          0.1815E+06
  24718      1    143     10      -13.48          0.1815E+06
  24719      1    143     11      -14.02          0.1815E+06
  24720      1    143     12      -14.38          0.1815E+06
  24721      1    143     13      -14.83          0.1815E+06
  24722      1    143     14      -14.58          0.1815E+06
  24723      1    143     15      -14.58          0.1815E+06
  24724      1    143     16      -14.48          0.1815E+06
  24725      1    143     17      -14.13          0.1815E+06
  24726      1    143     18      -14.18          0.1815E+06
  24727      1    143     19      -14.08          0.1815E+06
  24728      1    143     20      -14.08          0.1815E+06
  24729      1    143     21      -14.08          0.1815E+06
  24730      1    143     22      -14.08          0.1815E+06
  24731      1    143     23      -13.78          0.1815E+06
  24732      1    143     24      -13.68          0.1815E+06
  24733      1    143     25      -13.28          0.1815E+06
  24734      1    143     26      -13.28          0.1815E+06
  24735      1    143     27      -12.68          0.1815E+06
  24736      1    143     28      -12.68          0.1815E+06
  24737      1    143     29      -12.28          0.1815E+06
  24738      1    143     30      -11.88          0.1815E+06
  24739      1    143     31      -10.69          0.1815E+06
  24740      1    143     32      -10.69          0.1815E+06
  24741      1    143     33      -9.390          0.1815E+06
  24742      1    143     34      -8.680          0.1815E+06
  24743      1    143     35      -6.090          0.1815E+06
  24744      1    143     36      -6.610          0.1815E+06
  24745      1    143     37      -7.480          0.1815E+06
  24746      1    143     38      -7.480          0.1815E+06
  24747      1    143     39      -7.180          0.1815E+06
  24748      1    143     40      -6.480          0.1815E+06
  24749      1    143     41      -5.770          0.1815E+06
  24750      1    143     42      -5.550          0.1815E+06
  24751      1    143     43      -5.170          0.1815E+06
  24752      1    143     44      -5.170          0.1815E+06
  24753      1    143     45      -5.050          0.1815E+06
  24754      1    143     46      -4.760          0.1815E+06
  24755      1    143     47      -4.560          0.1815E+06
  24756      1    143     48      -4.060          0.1815E+06
  24757      1    143     49      -4.060          0.1815E+06
  24758      1    143     50      -3.140          0.1815E+06
  24759      1    143     51      -1.810          0.1815E+06
  24760      1    143     52      0.5600          0.1815E+06
  24761      1    143     53      0.5700          0.1815E+06
  24762      1    143     54       3.570          0.1815E+06
  24763      1    143     55       3.570          0.1815E+06
  24764      1    143     56       4.580          0.1815E+06
  24765      1    143     57       7.580          0.1815E+06
  24766      1    143     58       8.360          0.1815E+06
  24767      1    143     59       8.190          0.1815E+06
  24768      1    143     60       8.390          0.1815E+06
  24769      1    143     61       8.560          0.1815E+06
  24770      1    143     62       8.750          0.1815E+06
  24771      1    143     63       9.380          0.1815E+06
  24772      1    143     64       10.75          0.1815E+06
  24773      1    143     65       10.93          0.1815E+06
  24774      1    143     66       10.72          0.1815E+06
  24775      1    143     67       9.820          0.1815E+06
  24776      1    143     68       10.47          0.1815E+06
  24777      1    143     69       10.72          0.1815E+06
  24778      1    143     70       10.60          0.1815E+06
  24779      1    143     71       10.73          0.1815E+06
  24780      1    143     72       11.75          0.1815E+06
  24781      1    143     73       11.27          0.1815E+06
  24782      1    143     74       10.97          0.1815E+06
  24783      1    143     75       10.18          0.1815E+06
  24784      1    143     76       10.22          0.1815E+06
  24785      1    143     77       10.13          0.1815E+06
  24786      1    143     78       9.970          0.1815E+06
  24787      1    143     79       10.02          0.1815E+06
  24788      1    143     80       9.390          0.1815E+06
  24789      1    143     81       10.23          0.1815E+06
  24790      1    143     82       8.560          0.1815E+06
  24791      1    143     83       8.190          0.1815E+06
  24792      1    143     84       7.630          0.1815E+06
  24793      1    143     85       6.880          0.1815E+06
  24794      1    143     86       5.320          0.1815E+06
  24795      1    143     87       6.730          0.1815E+06
  24796      1    143     88       8.960          0.1815E+06
  24797      1    143     89       10.94          0.1815E+06
  24798      1    143     90       11.56          0.1815E+06
  24799      1    143     91       11.46          0.1815E+06
  24800      1    143     92       11.69          0.1815E+06
  24801      1    143     93       11.68          0.1815E+06
  24802      1    143     94       11.52          0.1815E+06
  24803      1    143     95       11.30          0.1815E+06
  24804      1    143     96       11.94          0.1815E+06
  24805      1    143     97       12.11          0.1815E+06
  24806      1    143     98       12.31          0.1815E+06
  24807      1    143     99       12.27          0.1815E+06
  24808      1    143    100       12.50          0.1815E+06
  24809      1    143    101       12.93          0.1815E+06
  24810      1    143    102       13.02          0.1815E+06
  24811      1    143    103       14.17          0.1815E+06
  24812      1    143    104       14.63          0.1815E+06
  24813      1    143    105       15.35          0.1815E+06
  24814      1    143    106       16.47          0.1815E+06
  24815      1    143    107       18.61          0.1815E+06
  24816      1    143    108       21.06          0.1815E+06
  24817      1    143    109       25.05          0.1815E+06
  24818      1    143    110       28.88          0.1815E+06
  24819      1    143    111       30.26          0.1815E+06
  24820      1    143    112       30.59          0.1815E+06
  24821      1    143    113       31.29          0.1815E+06
  24822      1    143    114       30.97          0.1815E+06
  24823      1    143    115       30.02          0.1815E+06
  24824      1    143    116       27.37          0.1815E+06
  24825      1    143    117       27.03          0.1815E+06
  24826      1    143    118       26.71          0.1815E+06
  24827      1    143    119       26.29          0.1815E+06
  24828      1    143    120       25.86          0.1815E+06
  24829      1    143    121       25.29          0.1815E+06
  24830      1    143    122       25.18          0.1815E+06
  24831      1    143    123       24.95          0.1815E+06
  24832      1    143    124       24.01          0.1815E+06
  24833      1    143    125       23.55          0.1815E+06
  24834      1    143    126       24.50          0.1815E+06
  24835      1    143    127       26.61          0.1815E+06
  24836      1    143    128       26.56          0.1815E+06
  24837      1    143    129       24.61          0.1815E+06
  24838      1    143    130       21.19          0.1815E+06
  24839      1    143    131       15.52          0.1815E+06
  24840      1    143    132       10.72          0.1815E+06
  24841      1    143    133       8.630          0.1815E+06
  24842      1    143    134       9.070          0.1815E+06
  24843      1    143    135       9.250          0.1815E+06
  24844      1    143    136       9.380          0.1815E+06
  24845      1    143    137       9.150          0.1815E+06
  24846      1    143    138       9.270          0.1815E+06
  24847      1    143    139       8.980          0.1815E+06
  24848      1    143    140       14.71          0.1815E+06
  24849      1    143    141       21.10          0.1815E+06
  24850      1    143    142       23.39          0.1815E+06
  24851      1    143    143       24.41          0.1815E+06
  24852      1    143    144       25.60          0.1815E+06
  24853      1    143    145       28.20          0.1815E+06
  24854      1    143    146       30.80          0.1815E+06
  24855      1    143    147       33.00          0.1815E+06
  24856      1    143    148       35.50          0.1815E+06
  24857      1    143    149       37.50          0.1815E+06
  24858      1    143    150       38.60          0.1815E+06
  24859      1    143    151       39.60          0.1815E+06
  24860      1    143    152       40.80          0.1815E+06
  24861      1    143    153       41.90          0.1815E+06
  24862      1    143    154       43.10          0.1815E+06
  24863      1    143    155       44.00          0.1815E+06
  24864      1    143    156       44.70          0.1815E+06
  24865      1    143    157       45.30          0.1815E+06
  24866      1    143    158       45.30          0.1815E+06
  24867      1    143    159       45.00          0.1815E+06
  24868      1    143    160       44.30          0.1815E+06
  24869      1    143    161       43.60          0.1815E+06
  24870      1    143    162       43.30          0.1815E+06
  24871      1    143    163       43.30          0.1815E+06
  24872      1    143    164       43.40          0.1815E+06
  24873      1    143    165       43.20          0.1815E+06
  24874      1    143    166       42.50          0.1815E+06
  24875      1    143    167       41.00          0.1815E+06
  24876      1    143    168       39.50          0.1815E+06
  24877      1    143    169       37.80          0.1815E+06
  24878      1    143    170       35.80          0.1815E+06
  24879      1    143    171       34.30          0.1815E+06
  24880      1    143    172       33.40          0.1815E+06
  24881      1    143    173       33.30          0.1815E+06
  24882      1    143    174       33.60          0.1815E+06
  24883      1    144      1      -12.08          0.1815E+06
  24884      1    144      2      -12.48          0.1815E+06
  24885      1    144      3      -12.48          0.1815E+06
  24886      1    144      4      -12.48          0.1815E+06
  24887      1    144      5      -12.38          0.1815E+06
  24888      1    144      6      -12.68          0.1815E+06
  24889      1    144      7      -13.08          0.1815E+06
  24890      1    144      8      -13.21          0.1815E+06
  24891      1    144      9      -13.21          0.1815E+06
  24892      1    144     10      -13.83          0.1815E+06
  24893      1    144     11      -14.18          0.1815E+06
  24894      1    144     12      -14.38          0.1815E+06
  24895      1    144     13      -14.83          0.1815E+06
  24896      1    144     14      -14.58          0.1815E+06
  24897      1    144     15      -14.58          0.1815E+06
  24898      1    144     16      -14.48          0.1815E+06
  24899      1    144     17      -14.40          0.1815E+06
  24900      1    144     18      -14.49          0.1815E+06
  24901      1    144     19      -14.39          0.1815E+06
  24902      1    144     20      -14.27          0.1815E+06
  24903      1    144     21      -14.27          0.1815E+06
  24904      1    144     22      -14.19          0.1815E+06
  24905      1    144     23      -14.09          0.1815E+06
  24906      1    144     24      -13.49          0.1815E+06
  24907      1    144     25      -13.50          0.1815E+06
  24908      1    144     26      -13.50          0.1815E+06
  24909      1    144     27      -13.39          0.1815E+06
  24910      1    144     28      -12.79          0.1815E+06
  24911      1    144     29      -13.19          0.1815E+06
  24912      1    144     30      -12.19          0.1815E+06
  24913      1    144     31      -11.69          0.1815E+06
  24914      1    144     32      -11.69          0.1815E+06
  24915      1    144     33      -10.69          0.1815E+06
  24916      1    144     34      -9.660          0.1815E+06
  24917      1    144     35      -8.890          0.1815E+06
  24918      1    144     36      -6.610          0.1815E+06
  24919      1    144     37      -7.480          0.1815E+06
  24920      1    144     38      -7.480          0.1815E+06
  24921      1    144     39      -6.880          0.1815E+06
  24922      1    144     40      -6.480          0.1815E+06
  24923      1    144     41      -6.080          0.1815E+06
  24924      1    144     42      -5.780          0.1815E+06
  24925      1    144     43      -5.270          0.1815E+06
  24926      1    144     44      -5.270          0.1815E+06
  24927      1    144     45      -5.070          0.1815E+06
  24928      1    144     46      -4.540          0.1815E+06
  24929      1    144     47      -4.200          0.1815E+06
  24930      1    144     48      -3.440          0.1815E+06
  24931      1    144     49      -3.440          0.1815E+06
  24932      1    144     50      -3.180          0.1815E+06
  24933      1    144     51      -3.270          0.1815E+06
  24934      1    144     52      -2.770          0.1815E+06
  24935      1    144     53      0.5600          0.1815E+06
  24936      1    144     54       2.570          0.1815E+06
  24937      1    144     55       2.570          0.1815E+06
  24938      1    144     56       4.570          0.1815E+06
  24939      1    144     57       6.080          0.1815E+06
  24940      1    144     58       9.670          0.1815E+06
  24941      1    144     59       8.300          0.1815E+06
  24942      1    144     60       7.780          0.1815E+06
  24943      1    144     61       8.550          0.1815E+06
  24944      1    144     62       8.890          0.1815E+06
  24945      1    144     63       10.18          0.1815E+06
  24946      1    144     64       11.69          0.1815E+06
  24947      1    144     65       10.31          0.1815E+06
  24948      1    144     66       9.720          0.1815E+06
  24949      1    144     67       9.560          0.1815E+06
  24950      1    144     68       10.06          0.1815E+06
  24951      1    144     69       9.930          0.1815E+06
  24952      1    144     70       10.28          0.1815E+06
  24953      1    144     71       11.19          0.1815E+06
  24954      1    144     72       13.10          0.1815E+06
  24955      1    144     73       11.56          0.1815E+06
  24956      1    144     74       11.02          0.1815E+06
  24957      1    144     75       11.72          0.1815E+06
  24958      1    144     76       10.72          0.1815E+06
  24959      1    144     77       10.35          0.1815E+06
  24960      1    144     78       10.23          0.1815E+06
  24961      1    144     79       10.18          0.1815E+06
  24962      1    144     80       9.430          0.1815E+06
  24963      1    144     81       9.310          0.1815E+06
  24964      1    144     82       8.860          0.1815E+06
  24965      1    144     83       8.400          0.1815E+06
  24966      1    144     84       9.780          0.1815E+06
  24967      1    144     85       7.460          0.1815E+06
  24968      1    144     86       6.590          0.1815E+06
  24969      1    144     87       7.030          0.1815E+06
  24970      1    144     88       6.110          0.1815E+06
  24971      1    144     89       10.52          0.1815E+06
  24972      1    144     90       10.73          0.1815E+06
  24973      1    144     91       11.22          0.1815E+06
  24974      1    144     92       11.77          0.1815E+06
  24975      1    144     93       11.14          0.1815E+06
  24976      1    144     94       10.68          0.1815E+06
  24977      1    144     95       10.77          0.1815E+06
  24978      1    144     96       11.48          0.1815E+06
  24979      1    144     97       11.81          0.1815E+06
  24980      1    144     98       12.39          0.1815E+06
  24981      1    144     99       12.06          0.1815E+06
  24982      1    144    100       12.35          0.1815E+06
  24983      1    144    101       13.07          0.1815E+06
  24984      1    144    102       13.10          0.1815E+06
  24985      1    144    103       13.55          0.1815E+06
  24986      1    144    104       14.01          0.1815E+06
  24987      1    144    105       14.35          0.1815E+06
  24988      1    144    106       16.15          0.1815E+06
  24989      1    144    107       17.44          0.1815E+06
  24990      1    144    108       19.29          0.1815E+06
  24991      1    144    109       22.39          0.1815E+06
  24992      1    144    110       25.94          0.1815E+06
  24993      1    144    111       28.38          0.1815E+06
  24994      1    144    112       27.77          0.1815E+06
  24995      1    144    113       27.50          0.1815E+06
  24996      1    144    114       25.70          0.1815E+06
  24997      1    144    115       25.09          0.1815E+06
  24998      1    144    116       24.34          0.1815E+06
  24999      1    144    117       23.71          0.1815E+06
  25000      1    144    118       23.10          0.1815E+06
  25001      1    144    119       22.19          0.1815E+06
  25002      1    144    120       22.44          0.1815E+06
  25003      1    144    121       21.78          0.1815E+06
  25004      1    144    122       21.75          0.1815E+06
  25005      1    144    123       21.89          0.1815E+06
  25006      1    144    124       20.80          0.1815E+06
  25007      1    144    125       20.05          0.1815E+06
  25008      1    144    126       24.54          0.1815E+06
  25009      1    144    127       24.32          0.1815E+06
  25010      1    144    128       23.04          0.1815E+06
  25011      1    144    129       19.04          0.1815E+06
  25012      1    144    130       13.78          0.1815E+06
  25013      1    144    131       9.590          0.1815E+06
  25014      1    144    132       7.650          0.1815E+06
  25015      1    144    133       6.900          0.1815E+06
  25016      1    144    134       7.110          0.1815E+06
  25017      1    144    135       7.230          0.1815E+06
  25018      1    144    136       8.060          0.1815E+06
  25019      1    144    137       8.390          0.1815E+06
  25020      1    144    138       7.690          0.1815E+06
  25021      1    144    139       10.15          0.1815E+06
  25022      1    144    140       17.60          0.1815E+06
  25023      1    144    141       20.61          0.1815E+06
  25024      1    144    142       23.26          0.1815E+06
  25025      1    144    143       22.50          0.1815E+06
  25026      1    144    144       23.73          0.1815E+06
  25027      1    144    145       26.30          0.1815E+06
  25028      1    144    146       28.70          0.1815E+06
  25029      1    144    147       32.00          0.1815E+06
  25030      1    144    148       35.40          0.1815E+06
  25031      1    144    149       37.10          0.1815E+06
  25032      1    144    150       38.00          0.1815E+06
  25033      1    144    151       39.10          0.1815E+06
  25034      1    144    152       40.30          0.1815E+06
  25035      1    144    153       41.50          0.1815E+06
  25036      1    144    154       42.10          0.1815E+06
  25037      1    144    155       43.10          0.1815E+06
  25038      1    144    156       43.70          0.1815E+06
  25039      1    144    157       44.40          0.1815E+06
  25040      1    144    158       44.20          0.1815E+06
  25041      1    144    159       43.50          0.1815E+06
  25042      1    144    160       42.90          0.1815E+06
  25043      1    144    161       42.80          0.1815E+06
  25044      1    144    162       42.20          0.1815E+06
  25045      1    144    163       42.30          0.1815E+06
  25046      1    144    164       42.70          0.1815E+06
  25047      1    144    165       42.90          0.1815E+06
  25048      1    144    166       42.70          0.1815E+06
  25049      1    144    167       41.70          0.1815E+06
  25050      1    144    168       40.10          0.1815E+06
  25051      1    144    169       38.40          0.1815E+06
  25052      1    144    170       36.90          0.1815E+06
  25053      1    144    171       35.30          0.1815E+06
  25054      1    144    172       33.70          0.1815E+06
  25055      1    144    173       32.60          0.1815E+06
  25056      1    144    174       31.50          0.1815E+06
  25057      1    145      1      -12.87          0.1815E+06
  25058      1    145      2      -12.98          0.1815E+06
  25059      1    145      3      -12.98          0.1815E+06
  25060      1    145      4      -12.23          0.1815E+06
  25061      1    145      5      -12.22          0.1815E+06
  25062      1    145      6      -12.41          0.1815E+06
  25063      1    145      7      -13.08          0.1815E+06
  25064      1    145      8      -13.43          0.1815E+06
  25065      1    145      9      -13.43          0.1815E+06
  25066      1    145     10      -13.83          0.1815E+06
  25067      1    145     11      -14.18          0.1815E+06
  25068      1    145     12      -14.59          0.1815E+06
  25069      1    145     13      -15.04          0.1815E+06
  25070      1    145     14      -15.19          0.1815E+06
  25071      1    145     15      -15.19          0.1815E+06
  25072      1    145     16      -14.79          0.1815E+06
  25073      1    145     17      -14.69          0.1815E+06
  25074      1    145     18      -14.19          0.1815E+06
  25075      1    145     19      -14.39          0.1815E+06
  25076      1    145     20      -14.24          0.1815E+06
  25077      1    145     21      -14.24          0.1815E+06
  25078      1    145     22      -14.10          0.1815E+06
  25079      1    145     23      -13.97          0.1815E+06
  25080      1    145     24      -13.89          0.1815E+06
  25081      1    145     25      -13.59          0.1815E+06
  25082      1    145     26      -13.59          0.1815E+06
  25083      1    145     27      -13.39          0.1815E+06
  25084      1    145     28      -13.69          0.1815E+06
  25085      1    145     29      -13.65          0.1815E+06
  25086      1    145     30      -13.06          0.1815E+06
  25087      1    145     31      -12.55          0.1815E+06
  25088      1    145     32      -12.55          0.1815E+06
  25089      1    145     33      -10.69          0.1815E+06
  25090      1    145     34      -9.660          0.1815E+06
  25091      1    145     35      -8.890          0.1815E+06
  25092      1    145     36      -8.290          0.1815E+06
  25093      1    145     37      -7.790          0.1815E+06
  25094      1    145     38      -7.790          0.1815E+06
  25095      1    145     39      -7.180          0.1815E+06
  25096      1    145     40      -6.780          0.1815E+06
  25097      1    145     41      -6.380          0.1815E+06
  25098      1    145     42      -5.980          0.1815E+06
  25099      1    145     43      -4.880          0.1815E+06
  25100      1    145     44      -4.880          0.1815E+06
  25101      1    145     45      -4.510          0.1815E+06
  25102      1    145     46      -3.940          0.1815E+06
  25103      1    145     47      -3.670          0.1815E+06
  25104      1    145     48      -3.070          0.1815E+06
  25105      1    145     49      -3.070          0.1815E+06
  25106      1    145     50      -2.570          0.1815E+06
  25107      1    145     51      -2.800          0.1815E+06
  25108      1    145     52      -2.070          0.1815E+06
  25109      1    145     53      0.5700          0.1815E+06
  25110      1    145     54       1.570          0.1815E+06
  25111      1    145     55       1.570          0.1815E+06
  25112      1    145     56       3.070          0.1815E+06
  25113      1    145     57       6.080          0.1815E+06
  25114      1    145     58       12.06          0.1815E+06
  25115      1    145     59       8.390          0.1815E+06
  25116      1    145     60       8.150          0.1815E+06
  25117      1    145     61       9.140          0.1815E+06
  25118      1    145     62       8.390          0.1815E+06
  25119      1    145     63       9.380          0.1815E+06
  25120      1    145     64       10.68          0.1815E+06
  25121      1    145     65       9.350          0.1815E+06
  25122      1    145     66       9.610          0.1815E+06
  25123      1    145     67       9.610          0.1815E+06
  25124      1    145     68       9.760          0.1815E+06
  25125      1    145     69       9.970          0.1815E+06
  25126      1    145     70       10.60          0.1815E+06
  25127      1    145     71       11.06          0.1815E+06
  25128      1    145     72       11.43          0.1815E+06
  25129      1    145     73       11.30          0.1815E+06
  25130      1    145     74       11.28          0.1815E+06
  25131      1    145     75       10.92          0.1815E+06
  25132      1    145     76       11.39          0.1815E+06
  25133      1    145     77       10.55          0.1815E+06
  25134      1    145     78       10.19          0.1815E+06
  25135      1    145     79       10.07          0.1815E+06
  25136      1    145     80       9.970          0.1815E+06
  25137      1    145     81       9.710          0.1815E+06
  25138      1    145     82       9.020          0.1815E+06
  25139      1    145     83       8.730          0.1815E+06
  25140      1    145     84       8.280          0.1815E+06
  25141      1    145     85       10.19          0.1815E+06
  25142      1    145     86       7.170          0.1815E+06
  25143      1    145     87       6.710          0.1815E+06
  25144      1    145     88       6.170          0.1815E+06
  25145      1    145     89       5.940          0.1815E+06
  25146      1    145     90       7.670          0.1815E+06
  25147      1    145     91       9.930          0.1815E+06
  25148      1    145     92       10.60          0.1815E+06
  25149      1    145     93       9.970          0.1815E+06
  25150      1    145     94       9.640          0.1815E+06
  25151      1    145     95       11.06          0.1815E+06
  25152      1    145     96       12.03          0.1815E+06
  25153      1    145     97       12.18          0.1815E+06
  25154      1    145     98       12.10          0.1815E+06
  25155      1    145     99       12.02          0.1815E+06
  25156      1    145    100       12.19          0.1815E+06
  25157      1    145    101       12.48          0.1815E+06
  25158      1    145    102       12.77          0.1815E+06
  25159      1    145    103       13.21          0.1815E+06
  25160      1    145    104       13.77          0.1815E+06
  25161      1    145    105       14.77          0.1815E+06
  25162      1    145    106       15.53          0.1815E+06
  25163      1    145    107       16.54          0.1815E+06
  25164      1    145    108       16.87          0.1815E+06
  25165      1    145    109       19.15          0.1815E+06
  25166      1    145    110       21.37          0.1815E+06
  25167      1    145    111       23.19          0.1815E+06
  25168      1    145    112       22.92          0.1815E+06
  25169      1    145    113       22.45          0.1815E+06
  25170      1    145    114       22.07          0.1815E+06
  25171      1    145    115       21.85          0.1815E+06
  25172      1    145    116       21.88          0.1815E+06
  25173      1    145    117       22.13          0.1815E+06
  25174      1    145    118       21.53          0.1815E+06
  25175      1    145    119       20.35          0.1815E+06
  25176      1    145    120       19.62          0.1815E+06
  25177      1    145    121       19.35          0.1815E+06
  25178      1    145    122       19.59          0.1815E+06
  25179      1    145    123       20.11          0.1815E+06
  25180      1    145    124       18.51          0.1815E+06
  25181      1    145    125       18.20          0.1815E+06
  25182      1    145    126       20.59          0.1815E+06
  25183      1    145    127       20.34          0.1815E+06
  25184      1    145    128       16.93          0.1815E+06
  25185      1    145    129       12.22          0.1815E+06
  25186      1    145    130       8.350          0.1815E+06
  25187      1    145    131       6.320          0.1815E+06
  25188      1    145    132       6.530          0.1815E+06
  25189      1    145    133       6.400          0.1815E+06
  25190      1    145    134       6.760          0.1815E+06
  25191      1    145    135       6.820          0.1815E+06
  25192      1    145    136       7.500          0.1815E+06
  25193      1    145    137       7.780          0.1815E+06
  25194      1    145    138       8.210          0.1815E+06
  25195      1    145    139       15.97          0.1815E+06
  25196      1    145    140       20.37          0.1815E+06
  25197      1    145    141       23.06          0.1815E+06
  25198      1    145    142       22.96          0.1815E+06
  25199      1    145    143       21.29          0.1815E+06
  25200      1    145    144       23.32          0.1815E+06
  25201      1    145    145       25.00          0.1815E+06
  25202      1    145    146       27.30          0.1815E+06
  25203      1    145    147       30.20          0.1815E+06
  25204      1    145    148       33.60          0.1815E+06
  25205      1    145    149       35.80          0.1815E+06
  25206      1    145    150       37.10          0.1815E+06
  25207      1    145    151       38.30          0.1815E+06
  25208      1    145    152       39.70          0.1815E+06
  25209      1    145    153       41.10          0.1815E+06
  25210      1    145    154       41.70          0.1815E+06
  25211      1    145    155       42.10          0.1815E+06
  25212      1    145    156       42.70          0.1815E+06
  25213      1    145    157       43.10          0.1815E+06
  25214      1    145    158       42.80          0.1815E+06
  25215      1    145    159       41.90          0.1815E+06
  25216      1    145    160       41.60          0.1815E+06
  25217      1    145    161       41.50          0.1815E+06
  25218      1    145    162       41.20          0.1815E+06
  25219      1    145    163       40.80          0.1815E+06
  25220      1    145    164       41.10          0.1815E+06
  25221      1    145    165       42.00          0.1815E+06
  25222      1    145    166       42.00          0.1815E+06
  25223      1    145    167       41.40          0.1815E+06
  25224      1    145    168       40.50          0.1815E+06
  25225      1    145    169       39.40          0.1815E+06
  25226      1    145    170       38.00          0.1815E+06
  25227      1    145    171       36.30          0.1815E+06
  25228      1    145    172       34.50          0.1815E+06
  25229      1    145    173       32.90          0.1815E+06
  25230      1    145    174       31.60          0.1815E+06
  25231      1    146      1      -12.87          0.1815E+06
  25232      1    146      2      -12.98          0.1815E+06
  25233      1    146      3      -12.98          0.1815E+06
  25234      1    146      4      -12.23          0.1815E+06
  25235      1    146      5      -12.22          0.1815E+06
  25236      1    146      6      -12.41          0.1815E+06
  25237      1    146      7      -13.08          0.1815E+06
  25238      1    146      8      -13.43          0.1815E+06
  25239      1    146      9      -13.43          0.1815E+06
  25240      1    146     10      -13.83          0.1815E+06
  25241      1    146     11      -14.18          0.1815E+06
  25242      1    146     12      -14.59          0.1815E+06
  25243      1    146     13      -15.04          0.1815E+06
  25244      1    146     14      -15.19          0.1815E+06
  25245      1    146     15      -15.19          0.1815E+06
  25246      1    146     16      -14.79          0.1815E+06
  25247      1    146     17      -14.69          0.1815E+06
  25248      1    146     18      -14.19          0.1815E+06
  25249      1    146     19      -14.39          0.1815E+06
  25250      1    146     20      -14.24          0.1815E+06
  25251      1    146     21      -14.24          0.1815E+06
  25252      1    146     22      -14.10          0.1815E+06
  25253      1    146     23      -13.97          0.1815E+06
  25254      1    146     24      -13.89          0.1815E+06
  25255      1    146     25      -13.59          0.1815E+06
  25256      1    146     26      -13.59          0.1815E+06
  25257      1    146     27      -13.39          0.1815E+06
  25258      1    146     28      -13.69          0.1815E+06
  25259      1    146     29      -13.65          0.1815E+06
  25260      1    146     30      -13.06          0.1815E+06
  25261      1    146     31      -12.55          0.1815E+06
  25262      1    146     32      -12.55          0.1815E+06
  25263      1    146     33      -10.69          0.1815E+06
  25264      1    146     34      -9.660          0.1815E+06
  25265      1    146     35      -8.890          0.1815E+06
  25266      1    146     36      -8.290          0.1815E+06
  25267      1    146     37      -7.790          0.1815E+06
  25268      1    146     38      -7.790          0.1815E+06
  25269      1    146     39      -7.180          0.1815E+06
  25270      1    146     40      -6.780          0.1815E+06
  25271      1    146     41      -6.380          0.1815E+06
  25272      1    146     42      -5.980          0.1815E+06
  25273      1    146     43      -4.880          0.1815E+06
  25274      1    146     44      -4.880          0.1815E+06
  25275      1    146     45      -4.510          0.1815E+06
  25276      1    146     46      -3.940          0.1815E+06
  25277      1    146     47      -3.670          0.1815E+06
  25278      1    146     48      -3.070          0.1815E+06
  25279      1    146     49      -3.070          0.1815E+06
  25280      1    146     50      -2.570          0.1815E+06
  25281      1    146     51      -2.800          0.1815E+06
  25282      1    146     52      -2.070          0.1815E+06
  25283      1    146     53      0.5700          0.1815E+06
  25284      1    146     54       1.570          0.1815E+06
  25285      1    146     55       1.570          0.1815E+06
  25286      1    146     56       3.070          0.1815E+06
  25287      1    146     57       6.080          0.1815E+06
  25288      1    146     58       9.980          0.1815E+06
  25289      1    146     59       8.380          0.1815E+06
  25290      1    146     60       8.020          0.1815E+06
  25291      1    146     61       7.400          0.1815E+06
  25292      1    146     62       8.400          0.1815E+06
  25293      1    146     63       8.550          0.1815E+06
  25294      1    146     64       9.630          0.1815E+06
  25295      1    146     65       9.400          0.1815E+06
  25296      1    146     66       9.560          0.1815E+06
  25297      1    146     67       10.60          0.1815E+06
  25298      1    146     68       9.810          0.1815E+06
  25299      1    146     69       11.18          0.1815E+06
  25300      1    146     70       10.18          0.1815E+06
  25301      1    146     71       12.63          0.1815E+06
  25302      1    146     72       11.72          0.1815E+06
  25303      1    146     73       11.17          0.1815E+06
  25304      1    146     74       10.89          0.1815E+06
  25305      1    146     75       12.28          0.1815E+06
  25306      1    146     76       10.82          0.1815E+06
  25307      1    146     77       10.61          0.1815E+06
  25308      1    146     78       10.17          0.1815E+06
  25309      1    146     79       10.07          0.1815E+06
  25310      1    146     80       10.35          0.1815E+06
  25311      1    146     81       10.02          0.1815E+06
  25312      1    146     82       9.600          0.1815E+06
  25313      1    146     83       9.850          0.1815E+06
  25314      1    146     84       8.680          0.1815E+06
  25315      1    146     85       8.590          0.1815E+06
  25316      1    146     86       9.060          0.1815E+06
  25317      1    146     87       7.400          0.1815E+06
  25318      1    146     88       6.760          0.1815E+06
  25319      1    146     89       4.780          0.1815E+06
  25320      1    146     90       5.860          0.1815E+06
  25321      1    146     91       7.150          0.1815E+06
  25322      1    146     92       7.900          0.1815E+06
  25323      1    146     93       9.600          0.1815E+06
  25324      1    146     94       9.680          0.1815E+06
  25325      1    146     95       10.43          0.1815E+06
  25326      1    146     96       10.97          0.1815E+06
  25327      1    146     97       11.47          0.1815E+06
  25328      1    146     98       11.94          0.1815E+06
  25329      1    146     99       11.94          0.1815E+06
  25330      1    146    100       12.43          0.1815E+06
  25331      1    146    101       12.81          0.1815E+06
  25332      1    146    102       13.09          0.1815E+06
  25333      1    146    103       13.65          0.1815E+06
  25334      1    146    104       14.14          0.1815E+06
  25335      1    146    105       14.42          0.1815E+06
  25336      1    146    106       14.93          0.1815E+06
  25337      1    146    107       15.68          0.1815E+06
  25338      1    146    108       16.37          0.1815E+06
  25339      1    146    109       16.77          0.1815E+06
  25340      1    146    110       18.04          0.1815E+06
  25341      1    146    111       19.11          0.1815E+06
  25342      1    146    112       19.54          0.1815E+06
  25343      1    146    113       19.54          0.1815E+06
  25344      1    146    114       20.37          0.1815E+06
  25345      1    146    115       20.50          0.1815E+06
  25346      1    146    116       20.85          0.1815E+06
  25347      1    146    117       21.80          0.1815E+06
  25348      1    146    118       21.38          0.1815E+06
  25349      1    146    119       20.68          0.1815E+06
  25350      1    146    120       18.54          0.1815E+06
  25351      1    146    121       16.82          0.1815E+06
  25352      1    146    122       18.48          0.1815E+06
  25353      1    146    123       18.03          0.1815E+06
  25354      1    146    124       18.03          0.1815E+06
  25355      1    146    125       14.85          0.1815E+06
  25356      1    146    126       16.07          0.1815E+06
  25357      1    146    127       14.01          0.1815E+06
  25358      1    146    128       9.560          0.1815E+06
  25359      1    146    129       7.380          0.1815E+06
  25360      1    146    130       6.320          0.1815E+06
  25361      1    146    131       6.150          0.1815E+06
  25362      1    146    132       6.380          0.1815E+06
  25363      1    146    133       6.260          0.1815E+06
  25364      1    146    134       6.110          0.1815E+06
  25365      1    146    135       6.530          0.1815E+06
  25366      1    146    136       7.010          0.1815E+06
  25367      1    146    137       7.340          0.1815E+06
  25368      1    146    138       10.64          0.1815E+06
  25369      1    146    139       18.13          0.1815E+06
  25370      1    146    140       21.81          0.1815E+06
  25371      1    146    141       22.52          0.1815E+06
  25372      1    146    142       21.82          0.1815E+06
  25373      1    146    143       20.29          0.1815E+06
  25374      1    146    144       22.31          0.1815E+06
  25375      1    146    145       24.87          0.1815E+06
  25376      1    146    146       25.80          0.1815E+06
  25377      1    146    147       27.80          0.1815E+06
  25378      1    146    148       31.50          0.1815E+06
  25379      1    146    149       34.30          0.1815E+06
  25380      1    146    150       36.50          0.1815E+06
  25381      1    146    151       37.80          0.1815E+06
  25382      1    146    152       39.00          0.1815E+06
  25383      1    146    153       40.40          0.1815E+06
  25384      1    146    154       40.90          0.1815E+06
  25385      1    146    155       41.30          0.1815E+06
  25386      1    146    156       41.70          0.1815E+06
  25387      1    146    157       41.70          0.1815E+06
  25388      1    146    158       40.90          0.1815E+06
  25389      1    146    159       40.40          0.1815E+06
  25390      1    146    160       40.30          0.1815E+06
  25391      1    146    161       40.20          0.1815E+06
  25392      1    146    162       39.80          0.1815E+06
  25393      1    146    163       39.40          0.1815E+06
  25394      1    146    164       39.90          0.1815E+06
  25395      1    146    165       40.90          0.1815E+06
  25396      1    146    166       41.00          0.1815E+06
  25397      1    146    167       40.80          0.1815E+06
  25398      1    146    168       40.60          0.1815E+06
  25399      1    146    169       40.00          0.1815E+06
  25400      1    146    170       38.60          0.1815E+06
  25401      1    146    171       37.00          0.1815E+06
  25402      1    146    172       35.40          0.1815E+06
  25403      1    146    173       33.90          0.1815E+06
  25404      1    146    174       32.90          0.1815E+06
  25405      1    147      1      -13.13          0.1815E+06
  25406      1    147      2      -12.67          0.1815E+06
  25407      1    147      3      -12.67          0.1815E+06
  25408      1    147      4      -12.23          0.1815E+06
  25409      1    147      5      -12.22          0.1815E+06
  25410      1    147      6      -12.41          0.1815E+06
  25411      1    147      7      -12.73          0.1815E+06
  25412      1    147      8      -13.38          0.1815E+06
  25413      1    147      9      -13.38          0.1815E+06
  25414      1    147     10      -13.69          0.1815E+06
  25415      1    147     11      -14.52          0.1815E+06
  25416      1    147     12      -15.49          0.1815E+06
  25417      1    147     13      -15.29          0.1815E+06
  25418      1    147     14      -15.29          0.1815E+06
  25419      1    147     15      -15.29          0.1815E+06
  25420      1    147     16      -15.12          0.1815E+06
  25421      1    147     17      -14.99          0.1815E+06
  25422      1    147     18      -14.39          0.1815E+06
  25423      1    147     19      -14.39          0.1815E+06
  25424      1    147     20      -14.20          0.1815E+06
  25425      1    147     21      -14.20          0.1815E+06
  25426      1    147     22      -14.09          0.1815E+06
  25427      1    147     23      -14.09          0.1815E+06
  25428      1    147     24      -14.19          0.1815E+06
  25429      1    147     25      -14.19          0.1815E+06
  25430      1    147     26      -14.19          0.1815E+06
  25431      1    147     27      -13.99          0.1815E+06
  25432      1    147     28      -13.69          0.1815E+06
  25433      1    147     29      -13.65          0.1815E+06
  25434      1    147     30      -13.06          0.1815E+06
  25435      1    147     31      -12.55          0.1815E+06
  25436      1    147     32      -12.55          0.1815E+06
  25437      1    147     33      -10.59          0.1815E+06
  25438      1    147     34      -9.640          0.1815E+06
  25439      1    147     35      -8.590          0.1815E+06
  25440      1    147     36      -8.090          0.1815E+06
  25441      1    147     37      -7.690          0.1815E+06
  25442      1    147     38      -7.690          0.1815E+06
  25443      1    147     39      -6.990          0.1815E+06
  25444      1    147     40      -6.590          0.1815E+06
  25445      1    147     41      -6.780          0.1815E+06
  25446      1    147     42      -5.480          0.1815E+06
  25447      1    147     43      -4.880          0.1815E+06
  25448      1    147     44      -4.880          0.1815E+06
  25449      1    147     45      -4.260          0.1815E+06
  25450      1    147     46      -3.480          0.1815E+06
  25451      1    147     47      -3.280          0.1815E+06
  25452      1    147     48      -3.230          0.1815E+06
  25453      1    147     49      -3.230          0.1815E+06
  25454      1    147     50      -2.830          0.1815E+06
  25455      1    147     51      -2.870          0.1815E+06
  25456      1    147     52      -2.070          0.1815E+06
  25457      1    147     53      0.5700          0.1815E+06
  25458      1    147     54       1.570          0.1815E+06
  25459      1    147     55       1.570          0.1815E+06
  25460      1    147     56       3.070          0.1815E+06
  25461      1    147     57       4.570          0.1815E+06
  25462      1    147     58       7.050          0.1815E+06
  25463      1    147     59       8.550          0.1815E+06
  25464      1    147     60       9.510          0.1815E+06
  25465      1    147     61       10.18          0.1815E+06
  25466      1    147     62       10.56          0.1815E+06
  25467      1    147     63       9.000          0.1815E+06
  25468      1    147     64       8.840          0.1815E+06
  25469      1    147     65       9.630          0.1815E+06
  25470      1    147     66       10.00          0.1815E+06
  25471      1    147     67       9.960          0.1815E+06
  25472      1    147     68       10.09          0.1815E+06
  25473      1    147     69       10.50          0.1815E+06
  25474      1    147     70       10.78          0.1815E+06
  25475      1    147     71       11.31          0.1815E+06
  25476      1    147     72       12.13          0.1815E+06
  25477      1    147     73       11.52          0.1815E+06
  25478      1    147     74       12.63          0.1815E+06
  25479      1    147     75       10.50          0.1815E+06
  25480      1    147     76       12.00          0.1815E+06
  25481      1    147     77       11.14          0.1815E+06
  25482      1    147     78       10.85          0.1815E+06
  25483      1    147     79       10.35          0.1815E+06
  25484      1    147     80       10.34          0.1815E+06
  25485      1    147     81       10.02          0.1815E+06
  25486      1    147     82       10.56          0.1815E+06
  25487      1    147     83       9.460          0.1815E+06
  25488      1    147     84       9.310          0.1815E+06
  25489      1    147     85       8.900          0.1815E+06
  25490      1    147     86       8.260          0.1815E+06
  25491      1    147     87       8.560          0.1815E+06
  25492      1    147     88       7.210          0.1815E+06
  25493      1    147     89       6.480          0.1815E+06
  25494      1    147     90       5.630          0.1815E+06
  25495      1    147     91       6.250          0.1815E+06
  25496      1    147     92       7.380          0.1815E+06
  25497      1    147     93       8.270          0.1815E+06
  25498      1    147     94       10.18          0.1815E+06
  25499      1    147     95       11.18          0.1815E+06
  25500      1    147     96       11.98          0.1815E+06
  25501      1    147     97       12.11          0.1815E+06
  25502      1    147     98       11.98          0.1815E+06
  25503      1    147     99       12.64          0.1815E+06
  25504      1    147    100       12.81          0.1815E+06
  25505      1    147    101       13.38          0.1815E+06
  25506      1    147    102       13.35          0.1815E+06
  25507      1    147    103       13.86          0.1815E+06
  25508      1    147    104       14.14          0.1815E+06
  25509      1    147    105       14.17          0.1815E+06
  25510      1    147    106       14.42          0.1815E+06
  25511      1    147    107       14.94          0.1815E+06
  25512      1    147    108       15.27          0.1815E+06
  25513      1    147    109       15.48          0.1815E+06
  25514      1    147    110       16.50          0.1815E+06
  25515      1    147    111       17.12          0.1815E+06
  25516      1    147    112       17.75          0.1815E+06
  25517      1    147    113       18.94          0.1815E+06
  25518      1    147    114       18.75          0.1815E+06
  25519      1    147    115       18.59          0.1815E+06
  25520      1    147    116       20.32          0.1815E+06
  25521      1    147    117       20.79          0.1815E+06
  25522      1    147    118       19.79          0.1815E+06
  25523      1    147    119       19.65          0.1815E+06
  25524      1    147    120       18.42          0.1815E+06
  25525      1    147    121       15.68          0.1815E+06
  25526      1    147    122       17.36          0.1815E+06
  25527      1    147    123       17.68          0.1815E+06
  25528      1    147    124       15.92          0.1815E+06
  25529      1    147    125       9.350          0.1815E+06
  25530      1    147    126       9.730          0.1815E+06
  25531      1    147    127       7.190          0.1815E+06
  25532      1    147    128       6.320          0.1815E+06
  25533      1    147    129       6.070          0.1815E+06
  25534      1    147    130       6.030          0.1815E+06
  25535      1    147    131       6.400          0.1815E+06
  25536      1    147    132       6.210          0.1815E+06
  25537      1    147    133       6.210          0.1815E+06
  25538      1    147    134       6.300          0.1815E+06
  25539      1    147    135       6.630          0.1815E+06
  25540      1    147    136       7.170          0.1815E+06
  25541      1    147    137       9.890          0.1815E+06
  25542      1    147    138       15.07          0.1815E+06
  25543      1    147    139       19.40          0.1815E+06
  25544      1    147    140       20.50          0.1815E+06
  25545      1    147    141       21.94          0.1815E+06
  25546      1    147    142       19.79          0.1815E+06
  25547      1    147    143       18.76          0.1815E+06
  25548      1    147    144       20.85          0.1815E+06
  25549      1    147    145       23.14          0.1815E+06
  25550      1    147    146       24.39          0.1815E+06
  25551      1    147    147       26.60          0.1815E+06
  25552      1    147    148       30.10          0.1815E+06
  25553      1    147    149       33.10          0.1815E+06
  25554      1    147    150       36.00          0.1815E+06
  25555      1    147    151       37.60          0.1815E+06
  25556      1    147    152       38.50          0.1815E+06
  25557      1    147    153       39.10          0.1815E+06
  25558      1    147    154       39.90          0.1815E+06
  25559      1    147    155       40.30          0.1815E+06
  25560      1    147    156       40.40          0.1815E+06
  25561      1    147    157       40.40          0.1815E+06
  25562      1    147    158       39.30          0.1815E+06
  25563      1    147    159       38.80          0.1815E+06
  25564      1    147    160       38.80          0.1815E+06
  25565      1    147    161       38.70          0.1815E+06
  25566      1    147    162       38.50          0.1815E+06
  25567      1    147    163       38.60          0.1815E+06
  25568      1    147    164       39.00          0.1815E+06
  25569      1    147    165       39.70          0.1815E+06
  25570      1    147    166       39.90          0.1815E+06
  25571      1    147    167       39.80          0.1815E+06
  25572      1    147    168       40.00          0.1815E+06
  25573      1    147    169       39.60          0.1815E+06
  25574      1    147    170       38.60          0.1815E+06
  25575      1    147    171       37.40          0.1815E+06
  25576      1    147    172       36.10          0.1815E+06
  25577      1    147    173       35.00          0.1815E+06
  25578      1    147    174       34.00          0.1815E+06
  25579      1    148      1      -13.13          0.1815E+06
  25580      1    148      2      -12.67          0.1815E+06
  25581      1    148      3      -12.67          0.1815E+06
  25582      1    148      4      -11.88          0.1815E+06
  25583      1    148      5      -12.08          0.1815E+06
  25584      1    148      6      -12.18          0.1815E+06
  25585      1    148      7      -12.47          0.1815E+06
  25586      1    148      8      -13.29          0.1815E+06
  25587      1    148      9      -13.29          0.1815E+06
  25588      1    148     10      -13.89          0.1815E+06
  25589      1    148     11      -14.39          0.1815E+06
  25590      1    148     12      -14.59          0.1815E+06
  25591      1    148     13      -15.59          0.1815E+06
  25592      1    148     14      -15.39          0.1815E+06
  25593      1    148     15      -15.39          0.1815E+06
  25594      1    148     16      -15.29          0.1815E+06
  25595      1    148     17      -15.29          0.1815E+06
  25596      1    148     18      -14.59          0.1815E+06
  25597      1    148     19      -14.39          0.1815E+06
  25598      1    148     20      -14.34          0.1815E+06
  25599      1    148     21      -14.34          0.1815E+06
  25600      1    148     22      -14.69          0.1815E+06
  25601      1    148     23      -14.09          0.1815E+06
  25602      1    148     24      -14.19          0.1815E+06
  25603      1    148     25      -14.19          0.1815E+06
  25604      1    148     26      -14.19          0.1815E+06
  25605      1    148     27      -13.99          0.1815E+06
  25606      1    148     28      -14.00          0.1815E+06
  25607      1    148     29      -13.83          0.1815E+06
  25608      1    148     30      -13.50          0.1815E+06
  25609      1    148     31      -13.10          0.1815E+06
  25610      1    148     32      -13.10          0.1815E+06
  25611      1    148     33      -11.04          0.1815E+06
  25612      1    148     34      -8.800          0.1815E+06
  25613      1    148     35      -8.290          0.1815E+06
  25614      1    148     36      -7.290          0.1815E+06
  25615      1    148     37      -7.390          0.1815E+06
  25616      1    148     38      -7.390          0.1815E+06
  25617      1    148     39      -6.130          0.1815E+06
  25618      1    148     40      -5.390          0.1815E+06
  25619      1    148     41      -5.490          0.1815E+06
  25620      1    148     42      -4.990          0.1815E+06
  25621      1    148     43      -4.980          0.1815E+06
  25622      1    148     44      -4.980          0.1815E+06
  25623      1    148     45      -4.480          0.1815E+06
  25624      1    148     46      -4.080          0.1815E+06
  25625      1    148     47      -3.280          0.1815E+06
  25626      1    148     48      -3.230          0.1815E+06
  25627      1    148     49      -3.230          0.1815E+06
  25628      1    148     50      -2.830          0.1815E+06
  25629      1    148     51      -2.870          0.1815E+06
  25630      1    148     52      -2.780          0.1815E+06
  25631      1    148     53      0.5600          0.1815E+06
  25632      1    148     54      0.5700          0.1815E+06
  25633      1    148     55      0.5700          0.1815E+06
  25634      1    148     56       1.580          0.1815E+06
  25635      1    148     57       3.580          0.1815E+06
  25636      1    148     58       5.280          0.1815E+06
  25637      1    148     59       8.300          0.1815E+06
  25638      1    148     60       11.10          0.1815E+06
  25639      1    148     61       9.010          0.1815E+06
  25640      1    148     62       11.81          0.1815E+06
  25641      1    148     63       10.02          0.1815E+06
  25642      1    148     64       10.06          0.1815E+06
  25643      1    148     65       9.070          0.1815E+06
  25644      1    148     66       10.52          0.1815E+06
  25645      1    148     67       9.730          0.1815E+06
  25646      1    148     68       10.32          0.1815E+06
  25647      1    148     69       10.57          0.1815E+06
  25648      1    148     70       10.90          0.1815E+06
  25649      1    148     71       10.97          0.1815E+06
  25650      1    148     72       11.09          0.1815E+06
  25651      1    148     73       11.03          0.1815E+06
  25652      1    148     74       10.92          0.1815E+06
  25653      1    148     75       10.63          0.1815E+06
  25654      1    148     76       11.36          0.1815E+06
  25655      1    148     77       10.88          0.1815E+06
  25656      1    148     78       10.64          0.1815E+06
  25657      1    148     79       10.55          0.1815E+06
  25658      1    148     80       10.21          0.1815E+06
  25659      1    148     81       10.48          0.1815E+06
  25660      1    148     82       10.02          0.1815E+06
  25661      1    148     83       9.780          0.1815E+06
  25662      1    148     84       9.550          0.1815E+06
  25663      1    148     85       9.770          0.1815E+06
  25664      1    148     86       8.550          0.1815E+06
  25665      1    148     87       8.630          0.1815E+06
  25666      1    148     88       7.840          0.1815E+06
  25667      1    148     89       7.730          0.1815E+06
  25668      1    148     90       7.010          0.1815E+06
  25669      1    148     91       5.190          0.1815E+06
  25670      1    148     92       6.960          0.1815E+06
  25671      1    148     93       8.130          0.1815E+06
  25672      1    148     94       10.56          0.1815E+06
  25673      1    148     95       11.03          0.1815E+06
  25674      1    148     96       11.76          0.1815E+06
  25675      1    148     97       12.21          0.1815E+06
  25676      1    148     98       12.21          0.1815E+06
  25677      1    148     99       12.39          0.1815E+06
  25678      1    148    100       12.26          0.1815E+06
  25679      1    148    101       12.77          0.1815E+06
  25680      1    148    102       12.64          0.1815E+06
  25681      1    148    103       12.89          0.1815E+06
  25682      1    148    104       13.17          0.1815E+06
  25683      1    148    105       13.59          0.1815E+06
  25684      1    148    106       13.81          0.1815E+06
  25685      1    148    107       14.19          0.1815E+06
  25686      1    148    108       14.85          0.1815E+06
  25687      1    148    109       15.42          0.1815E+06
  25688      1    148    110       15.65          0.1815E+06
  25689      1    148    111       16.18          0.1815E+06
  25690      1    148    112       16.89          0.1815E+06
  25691      1    148    113       17.69          0.1815E+06
  25692      1    148    114       18.19          0.1815E+06
  25693      1    148    115       17.78          0.1815E+06
  25694      1    148    116       18.44          0.1815E+06
  25695      1    148    117       19.40          0.1815E+06
  25696      1    148    118       19.29          0.1815E+06
  25697      1    148    119       18.46          0.1815E+06
  25698      1    148    120       16.36          0.1815E+06
  25699      1    148    121       15.42          0.1815E+06
  25700      1    148    122       17.26          0.1815E+06
  25701      1    148    123       16.05          0.1815E+06
  25702      1    148    124       12.96          0.1815E+06
  25703      1    148    125       7.690          0.1815E+06
  25704      1    148    126       6.070          0.1815E+06
  25705      1    148    127       6.050          0.1815E+06
  25706      1    148    128       6.050          0.1815E+06
  25707      1    148    129       6.030          0.1815E+06
  25708      1    148    130       6.000          0.1815E+06
  25709      1    148    131       6.880          0.1815E+06
  25710      1    148    132       9.500          0.1815E+06
  25711      1    148    133       10.53          0.1815E+06
  25712      1    148    134       10.93          0.1815E+06
  25713      1    148    135       10.35          0.1815E+06
  25714      1    148    136       12.97          0.1815E+06
  25715      1    148    137       14.63          0.1815E+06
  25716      1    148    138       15.60          0.1815E+06
  25717      1    148    139       17.76          0.1815E+06
  25718      1    148    140       18.32          0.1815E+06
  25719      1    148    141       18.44          0.1815E+06
  25720      1    148    142       16.93          0.1815E+06
  25721      1    148    143       17.04          0.1815E+06
  25722      1    148    144       19.70          0.1815E+06
  25723      1    148    145       23.02          0.1815E+06
  25724      1    148    146       24.97          0.1815E+06
  25725      1    148    147       26.50          0.1815E+06
  25726      1    148    148       28.60          0.1815E+06
  25727      1    148    149       31.50          0.1815E+06
  25728      1    148    150       34.40          0.1815E+06
  25729      1    148    151       37.20          0.1815E+06
  25730      1    148    152       38.10          0.1815E+06
  25731      1    148    153       38.40          0.1815E+06
  25732      1    148    154       38.80          0.1815E+06
  25733      1    148    155       39.30          0.1815E+06
  25734      1    148    156       39.40          0.1815E+06
  25735      1    148    157       39.00          0.1815E+06
  25736      1    148    158       38.00          0.1815E+06
  25737      1    148    159       37.20          0.1815E+06
  25738      1    148    160       37.30          0.1815E+06
  25739      1    148    161       37.60          0.1815E+06
  25740      1    148    162       37.70          0.1815E+06
  25741      1    148    163       37.80          0.1815E+06
  25742      1    148    164       38.00          0.1815E+06
  25743      1    148    165       38.40          0.1815E+06
  25744      1    148    166       38.80          0.1815E+06
  25745      1    148    167       39.00          0.1815E+06
  25746      1    148    168       39.10          0.1815E+06
  25747      1    148    169       38.80          0.1815E+06
  25748      1    148    170       38.20          0.1815E+06
  25749      1    148    171       37.30          0.1815E+06
  25750      1    148    172       36.30          0.1815E+06
  25751      1    148    173       35.20          0.1815E+06
  25752      1    148    174       34.60          0.1815E+06
  25753      1    149      1      -12.58          0.1815E+06
  25754      1    149      2      -12.28          0.1815E+06
  25755      1    149      3      -12.28          0.1815E+06
  25756      1    149      4      -11.89          0.1815E+06
  25757      1    149      5      -11.74          0.1815E+06
  25758      1    149      6      -11.88          0.1815E+06
  25759      1    149      7      -12.69          0.1815E+06
  25760      1    149      8      -13.27          0.1815E+06
  25761      1    149      9      -13.27          0.1815E+06
  25762      1    149     10      -13.96          0.1815E+06
  25763      1    149     11      -14.49          0.1815E+06
  25764      1    149     12      -15.49          0.1815E+06
  25765      1    149     13      -15.84          0.1815E+06
  25766      1    149     14      -15.32          0.1815E+06
  25767      1    149     15      -15.32          0.1815E+06
  25768      1    149     16      -14.69          0.1815E+06
  25769      1    149     17      -14.60          0.1815E+06
  25770      1    149     18      -14.59          0.1815E+06
  25771      1    149     19      -14.39          0.1815E+06
  25772      1    149     20      -14.34          0.1815E+06
  25773      1    149     21      -14.34          0.1815E+06
  25774      1    149     22      -14.69          0.1815E+06
  25775      1    149     23      -14.30          0.1815E+06
  25776      1    149     24      -14.30          0.1815E+06
  25777      1    149     25      -14.40          0.1815E+06
  25778      1    149     26      -14.40          0.1815E+06
  25779      1    149     27      -14.23          0.1815E+06
  25780      1    149     28      -13.90          0.1815E+06
  25781      1    149     29      -13.50          0.1815E+06
  25782      1    149     30      -13.00          0.1815E+06
  25783      1    149     31      -12.30          0.1815E+06
  25784      1    149     32      -12.30          0.1815E+06
  25785      1    149     33      -11.40          0.1815E+06
  25786      1    149     34      -10.50          0.1815E+06
  25787      1    149     35      -9.500          0.1815E+06
  25788      1    149     36      -8.500          0.1815E+06
  25789      1    149     37      -4.300          0.1815E+06
  25790      1    149     38      -4.300          0.1815E+06
  25791      1    149     39      -4.490          0.1815E+06
  25792      1    149     40      -4.570          0.1815E+06
  25793      1    149     41      -4.790          0.1815E+06
  25794      1    149     42      -4.590          0.1815E+06
  25795      1    149     43      -4.980          0.1815E+06
  25796      1    149     44      -4.980          0.1815E+06
  25797      1    149     45      -4.480          0.1815E+06
  25798      1    149     46      -4.080          0.1815E+06
  25799      1    149     47      -3.600          0.1815E+06
  25800      1    149     48      -3.010          0.1815E+06
  25801      1    149     49      -3.010          0.1815E+06
  25802      1    149     50      -2.880          0.1815E+06
  25803      1    149     51      -2.780          0.1815E+06
  25804      1    149     52      -1.480          0.1815E+06
  25805      1    149     53      -1.680          0.1815E+06
  25806      1    149     54      0.5600          0.1815E+06
  25807      1    149     55      0.5600          0.1815E+06
  25808      1    149     56      0.5800          0.1815E+06
  25809      1    149     57       4.580          0.1815E+06
  25810      1    149     58       7.580          0.1815E+06
  25811      1    149     59       9.710          0.1815E+06
  25812      1    149     60       7.670          0.1815E+06
  25813      1    149     61       7.840          0.1815E+06
  25814      1    149     62       7.960          0.1815E+06
  25815      1    149     63       8.720          0.1815E+06
  25816      1    149     64       8.610          0.1815E+06
  25817      1    149     65       9.310          0.1815E+06
  25818      1    149     66       9.300          0.1815E+06
  25819      1    149     67       11.93          0.1815E+06
  25820      1    149     68       10.77          0.1815E+06
  25821      1    149     69       10.63          0.1815E+06
  25822      1    149     70       10.77          0.1815E+06
  25823      1    149     71       10.96          0.1815E+06
  25824      1    149     72       11.14          0.1815E+06
  25825      1    149     73       11.52          0.1815E+06
  25826      1    149     74       11.19          0.1815E+06
  25827      1    149     75       10.68          0.1815E+06
  25828      1    149     76       13.86          0.1815E+06
  25829      1    149     77       12.73          0.1815E+06
  25830      1    149     78       12.52          0.1815E+06
  25831      1    149     79       10.63          0.1815E+06
  25832      1    149     80       10.47          0.1815E+06
  25833      1    149     81       10.06          0.1815E+06
  25834      1    149     82       10.09          0.1815E+06
  25835      1    149     83       9.890          0.1815E+06
  25836      1    149     84       10.15          0.1815E+06
  25837      1    149     85       9.270          0.1815E+06
  25838      1    149     86       9.520          0.1815E+06
  25839      1    149     87       8.860          0.1815E+06
  25840      1    149     88       8.940          0.1815E+06
  25841      1    149     89       7.800          0.1815E+06
  25842      1    149     90       7.760          0.1815E+06
  25843      1    149     91       7.380          0.1815E+06
  25844      1    149     92       6.050          0.1815E+06
  25845      1    149     93       7.250          0.1815E+06
  25846      1    149     94       9.680          0.1815E+06
  25847      1    149     95       10.73          0.1815E+06
  25848      1    149     96       10.73          0.1815E+06
  25849      1    149     97       10.81          0.1815E+06
  25850      1    149     98       9.470          0.1815E+06
  25851      1    149     99       10.10          0.1815E+06
  25852      1    149    100       10.72          0.1815E+06
  25853      1    149    101       11.68          0.1815E+06
  25854      1    149    102       12.32          0.1815E+06
  25855      1    149    103       13.65          0.1815E+06
  25856      1    149    104       13.31          0.1815E+06
  25857      1    149    105       13.35          0.1815E+06
  25858      1    149    106       13.68          0.1815E+06
  25859      1    149    107       14.00          0.1815E+06
  25860      1    149    108       14.36          0.1815E+06
  25861      1    149    109       14.85          0.1815E+06
  25862      1    149    110       15.15          0.1815E+06
  25863      1    149    111       15.09          0.1815E+06
  25864      1    149    112       15.93          0.1815E+06
  25865      1    149    113       15.11          0.1815E+06
  25866      1    149    114       16.45          0.1815E+06
  25867      1    149    115       16.57          0.1815E+06
  25868      1    149    116       17.51          0.1815E+06
  25869      1    149    117       17.75          0.1815E+06
  25870      1    149    118       16.54          0.1815E+06
  25871      1    149    119       14.36          0.1815E+06
  25872      1    149    120       11.02          0.1815E+06
  25873      1    149    121       8.400          0.1815E+06
  25874      1    149    122       13.65          0.1815E+06
  25875      1    149    123       11.94          0.1815E+06
  25876      1    149    124       7.530          0.1815E+06
  25877      1    149    125       6.280          0.1815E+06
  25878      1    149    126       6.250          0.1815E+06
  25879      1    149    127       6.090          0.1815E+06
  25880      1    149    128       6.110          0.1815E+06
  25881      1    149    129       6.150          0.1815E+06
  25882      1    149    130       8.270          0.1815E+06
  25883      1    149    131       11.93          0.1815E+06
  25884      1    149    132       14.72          0.1815E+06
  25885      1    149    133       14.81          0.1815E+06
  25886      1    149    134       14.06          0.1815E+06
  25887      1    149    135       12.50          0.1815E+06
  25888      1    149    136       13.84          0.1815E+06
  25889      1    149    137       14.69          0.1815E+06
  25890      1    149    138       15.22          0.1815E+06
  25891      1    149    139       16.52          0.1815E+06
  25892      1    149    140       16.27          0.1815E+06
  25893      1    149    141       15.60          0.1815E+06
  25894      1    149    142       15.31          0.1815E+06
  25895      1    149    143       17.88          0.1815E+06
  25896      1    149    144       20.31          0.1815E+06
  25897      1    149    145       22.47          0.1815E+06
  25898      1    149    146       23.68          0.1815E+06
  25899      1    149    147       24.52          0.1815E+06
  25900      1    149    148       26.70          0.1815E+06
  25901      1    149    149       29.40          0.1815E+06
  25902      1    149    150       32.30          0.1815E+06
  25903      1    149    151       35.70          0.1815E+06
  25904      1    149    152       37.30          0.1815E+06
  25905      1    149    153       37.70          0.1815E+06
  25906      1    149    154       38.00          0.1815E+06
  25907      1    149    155       38.50          0.1815E+06
  25908      1    149    156       38.50          0.1815E+06
  25909      1    149    157       37.90          0.1815E+06
  25910      1    149    158       36.80          0.1815E+06
  25911      1    149    159       35.40          0.1815E+06
  25912      1    149    160       36.00          0.1815E+06
  25913      1    149    161       36.60          0.1815E+06
  25914      1    149    162       37.00          0.1815E+06
  25915      1    149    163       36.90          0.1815E+06
  25916      1    149    164       36.90          0.1815E+06
  25917      1    149    165       37.10          0.1815E+06
  25918      1    149    166       37.70          0.1815E+06
  25919      1    149    167       38.10          0.1815E+06
  25920      1    149    168       38.30          0.1815E+06
  25921      1    149    169       38.10          0.1815E+06
  25922      1    149    170       37.60          0.1815E+06
  25923      1    149    171       36.80          0.1815E+06
  25924      1    149    172       36.10          0.1815E+06
  25925      1    149    173       35.10          0.1815E+06
  25926      1    149    174       34.70          0.1815E+06
  25927      1    150      1      -11.87          0.1815E+06
  25928      1    150      2      -12.98          0.1815E+06
  25929      1    150      3      -12.98          0.1815E+06
  25930      1    150      4      -12.18          0.1815E+06
  25931      1    150      5      -11.78          0.1815E+06
  25932      1    150      6      -12.29          0.1815E+06
  25933      1    150      7      -12.69          0.1815E+06
  25934      1    150      8      -13.09          0.1815E+06
  25935      1    150      9      -13.09          0.1815E+06
  25936      1    150     10      -13.69          0.1815E+06
  25937      1    150     11      -14.19          0.1815E+06
  25938      1    150     12      -15.09          0.1815E+06
  25939      1    150     13      -15.09          0.1815E+06
  25940      1    150     14      -15.32          0.1815E+06
  25941      1    150     15      -15.32          0.1815E+06
  25942      1    150     16      -14.69          0.1815E+06
  25943      1    150     17      -14.80          0.1815E+06
  25944      1    150     18      -15.30          0.1815E+06
  25945      1    150     19      -15.00          0.1815E+06
  25946      1    150     20      -15.00          0.1815E+06
  25947      1    150     21      -15.00          0.1815E+06
  25948      1    150     22      -14.88          0.1815E+06
  25949      1    150     23      -14.68          0.1815E+06
  25950      1    150     24      -14.61          0.1815E+06
  25951      1    150     25      -14.60          0.1815E+06
  25952      1    150     26      -14.60          0.1815E+06
  25953      1    150     27      -14.00          0.1815E+06
  25954      1    150     28      -13.53          0.1815E+06
  25955      1    150     29      -12.60          0.1815E+06
  25956      1    150     30      -12.50          0.1815E+06
  25957      1    150     31      -11.85          0.1815E+06
  25958      1    150     32      -11.85          0.1815E+06
  25959      1    150     33      -11.30          0.1815E+06
  25960      1    150     34      -10.78          0.1815E+06
  25961      1    150     35      -9.700          0.1815E+06
  25962      1    150     36      -8.100          0.1815E+06
  25963      1    150     37      -5.400          0.1815E+06
  25964      1    150     38      -5.400          0.1815E+06
  25965      1    150     39      -4.490          0.1815E+06
  25966      1    150     40      -4.570          0.1815E+06
  25967      1    150     41      -4.790          0.1815E+06
  25968      1    150     42      -4.590          0.1815E+06
  25969      1    150     43      -4.730          0.1815E+06
  25970      1    150     44      -4.730          0.1815E+06
  25971      1    150     45      -4.410          0.1815E+06
  25972      1    150     46      -4.030          0.1815E+06
  25973      1    150     47      -3.490          0.1815E+06
  25974      1    150     48      -2.690          0.1815E+06
  25975      1    150     49      -2.690          0.1815E+06
  25976      1    150     50      -2.780          0.1815E+06
  25977      1    150     51      -2.490          0.1815E+06
  25978      1    150     52      -1.680          0.1815E+06
  25979      1    150     53      -1.260          0.1815E+06
  25980      1    150     54      0.5700          0.1815E+06
  25981      1    150     55      0.5700          0.1815E+06
  25982      1    150     56      0.5700          0.1815E+06
  25983      1    150     57       3.590          0.1815E+06
  25984      1    150     58       5.590          0.1815E+06
  25985      1    150     59       7.400          0.1815E+06
  25986      1    150     60       9.470          0.1815E+06
  25987      1    150     61       8.070          0.1815E+06
  25988      1    150     62       7.780          0.1815E+06
  25989      1    150     63       8.360          0.1815E+06
  25990      1    150     64       8.850          0.1815E+06
  25991      1    150     65       8.920          0.1815E+06
  25992      1    150     66       9.380          0.1815E+06
  25993      1    150     67       9.900          0.1815E+06
  25994      1    150     68       10.18          0.1815E+06
  25995      1    150     69       10.82          0.1815E+06
  25996      1    150     70       10.97          0.1815E+06
  25997      1    150     71       11.11          0.1815E+06
  25998      1    150     72       11.22          0.1815E+06
  25999      1    150     73       11.35          0.1815E+06
  26000      1    150     74       11.40          0.1815E+06
  26001      1    150     75       11.51          0.1815E+06
  26002      1    150     76       11.64          0.1815E+06
  26003      1    150     77       11.28          0.1815E+06
  26004      1    150     78       10.97          0.1815E+06
  26005      1    150     79       12.22          0.1815E+06
  26006      1    150     80       10.78          0.1815E+06
  26007      1    150     81       10.17          0.1815E+06
  26008      1    150     82       10.21          0.1815E+06
  26009      1    150     83       10.40          0.1815E+06
  26010      1    150     84       10.09          0.1815E+06
  26011      1    150     85       9.820          0.1815E+06
  26012      1    150     86       9.600          0.1815E+06
  26013      1    150     87       8.930          0.1815E+06
  26014      1    150     88       8.720          0.1815E+06
  26015      1    150     89       8.100          0.1815E+06
  26016      1    150     90       8.350          0.1815E+06
  26017      1    150     91       8.270          0.1815E+06
  26018      1    150     92       7.360          0.1815E+06
  26019      1    150     93       6.900          0.1815E+06
  26020      1    150     94       7.480          0.1815E+06
  26021      1    150     95       8.570          0.1815E+06
  26022      1    150     96       8.610          0.1815E+06
  26023      1    150     97       8.340          0.1815E+06
  26024      1    150     98       8.930          0.1815E+06
  26025      1    150     99       10.78          0.1815E+06
  26026      1    150    100       12.00          0.1815E+06
  26027      1    150    101       12.40          0.1815E+06
  26028      1    150    102       12.61          0.1815E+06
  26029      1    150    103       12.93          0.1815E+06
  26030      1    150    104       12.97          0.1815E+06
  26031      1    150    105       13.17          0.1815E+06
  26032      1    150    106       13.31          0.1815E+06
  26033      1    150    107       13.52          0.1815E+06
  26034      1    150    108       13.97          0.1815E+06
  26035      1    150    109       13.98          0.1815E+06
  26036      1    150    110       14.23          0.1815E+06
  26037      1    150    111       14.28          0.1815E+06
  26038      1    150    112       14.72          0.1815E+06
  26039      1    150    113       14.96          0.1815E+06
  26040      1    150    114       14.85          0.1815E+06
  26041      1    150    115       15.85          0.1815E+06
  26042      1    150    116       17.10          0.1815E+06
  26043      1    150    117       16.56          0.1815E+06
  26044      1    150    118       15.39          0.1815E+06
  26045      1    150    119       12.60          0.1815E+06
  26046      1    150    120       8.550          0.1815E+06
  26047      1    150    121       6.050          0.1815E+06
  26048      1    150    122       6.670          0.1815E+06
  26049      1    150    123       6.440          0.1815E+06
  26050      1    150    124       5.940          0.1815E+06
  26051      1    150    125       6.010          0.1815E+06
  26052      1    150    126       6.360          0.1815E+06
  26053      1    150    127       6.420          0.1815E+06
  26054      1    150    128       8.320          0.1815E+06
  26055      1    150    129       10.78          0.1815E+06
  26056      1    150    130       13.47          0.1815E+06
  26057      1    150    131       15.69          0.1815E+06
  26058      1    150    132       16.54          0.1815E+06
  26059      1    150    133       16.35          0.1815E+06
  26060      1    150    134       14.52          0.1815E+06
  26061      1    150    135       13.56          0.1815E+06
  26062      1    150    136       13.13          0.1815E+06
  26063      1    150    137       13.21          0.1815E+06
  26064      1    150    138       14.31          0.1815E+06
  26065      1    150    139       13.64          0.1815E+06
  26066      1    150    140       12.72          0.1815E+06
  26067      1    150    141       13.47          0.1815E+06
  26068      1    150    142       14.84          0.1815E+06
  26069      1    150    143       16.70          0.1815E+06
  26070      1    150    144       19.07          0.1815E+06
  26071      1    150    145       22.11          0.1815E+06
  26072      1    150    146       23.63          0.1815E+06
  26073      1    150    147       25.92          0.1815E+06
  26074      1    150    148       27.44          0.1815E+06
  26075      1    150    149       27.50          0.1815E+06
  26076      1    150    150       30.00          0.1815E+06
  26077      1    150    151       33.30          0.1815E+06
  26078      1    150    152       35.80          0.1815E+06
  26079      1    150    153       37.20          0.1815E+06
  26080      1    150    154       37.60          0.1815E+06
  26081      1    150    155       37.90          0.1815E+06
  26082      1    150    156       37.80          0.1815E+06
  26083      1    150    157       37.20          0.1815E+06
  26084      1    150    158       35.80          0.1815E+06
  26085      1    150    159       34.40          0.1815E+06
  26086      1    150    160       34.40          0.1815E+06
  26087      1    150    161       35.20          0.1815E+06
  26088      1    150    162       35.80          0.1815E+06
  26089      1    150    163       35.90          0.1815E+06
  26090      1    150    164       35.40          0.1815E+06
  26091      1    150    165       35.60          0.1815E+06
  26092      1    150    166       36.20          0.1815E+06
  26093      1    150    167       36.90          0.1815E+06
  26094      1    150    168       37.40          0.1815E+06
  26095      1    150    169       37.50          0.1815E+06
  26096      1    150    170       36.90          0.1815E+06
  26097      1    150    171       36.10          0.1815E+06
  26098      1    150    172       35.40          0.1815E+06
  26099      1    150    173       34.50          0.1815E+06
  26100      1    150    174       34.70          0.1815E+06
  26101      1    151      1      -10.98          0.1815E+06
  26102      1    151      2      -13.08          0.1815E+06
  26103      1    151      3      -13.08          0.1815E+06
  26104      1    151      4      -12.71          0.1815E+06
  26105      1    151      5      -12.69          0.1815E+06
  26106      1    151      6      -12.39          0.1815E+06
  26107      1    151      7      -12.09          0.1815E+06
  26108      1    151      8      -12.29          0.1815E+06
  26109      1    151      9      -12.29          0.1815E+06
  26110      1    151     10      -13.69          0.1815E+06
  26111      1    151     11      -14.19          0.1815E+06
  26112      1    151     12      -15.09          0.1815E+06
  26113      1    151     13      -15.09          0.1815E+06
  26114      1    151     14      -15.20          0.1815E+06
  26115      1    151     15      -15.20          0.1815E+06
  26116      1    151     16      -15.10          0.1815E+06
  26117      1    151     17      -15.10          0.1815E+06
  26118      1    151     18      -15.28          0.1815E+06
  26119      1    151     19      -15.10          0.1815E+06
  26120      1    151     20      -15.27          0.1815E+06
  26121      1    151     21      -15.27          0.1815E+06
  26122      1    151     22      -14.90          0.1815E+06
  26123      1    151     23      -14.70          0.1815E+06
  26124      1    151     24      -14.50          0.1815E+06
  26125      1    151     25      -14.41          0.1815E+06
  26126      1    151     26      -14.41          0.1815E+06
  26127      1    151     27      -13.31          0.1815E+06
  26128      1    151     28      -13.01          0.1815E+06
  26129      1    151     29      -11.56          0.1815E+06
  26130      1    151     30      -9.810          0.1815E+06
  26131      1    151     31      -10.48          0.1815E+06
  26132      1    151     32      -10.48          0.1815E+06
  26133      1    151     33      -9.710          0.1815E+06
  26134      1    151     34      -10.78          0.1815E+06
  26135      1    151     35      -9.700          0.1815E+06
  26136      1    151     36      -6.600          0.1815E+06
  26137      1    151     37      -5.400          0.1815E+06
  26138      1    151     38      -5.400          0.1815E+06
  26139      1    151     39      -5.800          0.1815E+06
  26140      1    151     40      -4.800          0.1815E+06
  26141      1    151     41      -4.950          0.1815E+06
  26142      1    151     42      -5.290          0.1815E+06
  26143      1    151     43      -5.050          0.1815E+06
  26144      1    151     44      -5.050          0.1815E+06
  26145      1    151     45      -4.400          0.1815E+06
  26146      1    151     46      -3.890          0.1815E+06
  26147      1    151     47      -3.490          0.1815E+06
  26148      1    151     48      -3.690          0.1815E+06
  26149      1    151     49      -3.690          0.1815E+06
  26150      1    151     50      -3.690          0.1815E+06
  26151      1    151     51      -3.090          0.1815E+06
  26152      1    151     52      -2.790          0.1815E+06
  26153      1    151     53      -2.590          0.1815E+06
  26154      1    151     54      -2.580          0.1815E+06
  26155      1    151     55      -2.580          0.1815E+06
  26156      1    151     56      0.5700          0.1815E+06
  26157      1    151     57       2.080          0.1815E+06
  26158      1    151     58       4.080          0.1815E+06
  26159      1    151     59       5.550          0.1815E+06
  26160      1    151     60       9.220          0.1815E+06
  26161      1    151     61       7.960          0.1815E+06
  26162      1    151     62       8.840          0.1815E+06
  26163      1    151     63       7.880          0.1815E+06
  26164      1    151     64       8.430          0.1815E+06
  26165      1    151     65       8.780          0.1815E+06
  26166      1    151     66       9.520          0.1815E+06
  26167      1    151     67       10.64          0.1815E+06
  26168      1    151     68       10.06          0.1815E+06
  26169      1    151     69       10.98          0.1815E+06
  26170      1    151     70       10.51          0.1815E+06
  26171      1    151     71       10.85          0.1815E+06
  26172      1    151     72       11.85          0.1815E+06
  26173      1    151     73       12.81          0.1815E+06
  26174      1    151     74       10.80          0.1815E+06
  26175      1    151     75       11.31          0.1815E+06
  26176      1    151     76       11.11          0.1815E+06
  26177      1    151     77       11.10          0.1815E+06
  26178      1    151     78       10.88          0.1815E+06
  26179      1    151     79       10.65          0.1815E+06
  26180      1    151     80       10.53          0.1815E+06
  26181      1    151     81       10.40          0.1815E+06
  26182      1    151     82       10.68          0.1815E+06
  26183      1    151     83       10.13          0.1815E+06
  26184      1    151     84       10.31          0.1815E+06
  26185      1    151     85       10.18          0.1815E+06
  26186      1    151     86       10.68          0.1815E+06
  26187      1    151     87       9.060          0.1815E+06
  26188      1    151     88       9.230          0.1815E+06
  26189      1    151     89       8.960          0.1815E+06
  26190      1    151     90       8.590          0.1815E+06
  26191      1    151     91       8.180          0.1815E+06
  26192      1    151     92       7.610          0.1815E+06
  26193      1    151     93       6.920          0.1815E+06
  26194      1    151     94       7.190          0.1815E+06
  26195      1    151     95       7.190          0.1815E+06
  26196      1    151     96       5.700          0.1815E+06
  26197      1    151     97       8.840          0.1815E+06
  26198      1    151     98       10.75          0.1815E+06
  26199      1    151     99       11.43          0.1815E+06
  26200      1    151    100       12.64          0.1815E+06
  26201      1    151    101       11.64          0.1815E+06
  26202      1    151    102       12.43          0.1815E+06
  26203      1    151    103       12.48          0.1815E+06
  26204      1    151    104       12.51          0.1815E+06
  26205      1    151    105       12.57          0.1815E+06
  26206      1    151    106       12.65          0.1815E+06
  26207      1    151    107       12.52          0.1815E+06
  26208      1    151    108       13.10          0.1815E+06
  26209      1    151    109       12.90          0.1815E+06
  26210      1    151    110       11.56          0.1815E+06
  26211      1    151    111       11.78          0.1815E+06
  26212      1    151    112       13.25          0.1815E+06
  26213      1    151    113       14.02          0.1815E+06
  26214      1    151    114       14.47          0.1815E+06
  26215      1    151    115       15.81          0.1815E+06
  26216      1    151    116       18.32          0.1815E+06
  26217      1    151    117       19.55          0.1815E+06
  26218      1    151    118       17.46          0.1815E+06
  26219      1    151    119       11.31          0.1815E+06
  26220      1    151    120       5.940          0.1815E+06
  26221      1    151    121       5.730          0.1815E+06
  26222      1    151    122       5.860          0.1815E+06
  26223      1    151    123       6.150          0.1815E+06
  26224      1    151    124       5.840          0.1815E+06
  26225      1    151    125       7.860          0.1815E+06
  26226      1    151    126       10.96          0.1815E+06
  26227      1    151    127       12.02          0.1815E+06
  26228      1    151    128       13.18          0.1815E+06
  26229      1    151    129       15.09          0.1815E+06
  26230      1    151    130       16.42          0.1815E+06
  26231      1    151    131       16.92          0.1815E+06
  26232      1    151    132       16.25          0.1815E+06
  26233      1    151    133       15.44          0.1815E+06
  26234      1    151    134       13.85          0.1815E+06
  26235      1    151    135       12.94          0.1815E+06
  26236      1    151    136       11.81          0.1815E+06
  26237      1    151    137       12.05          0.1815E+06
  26238      1    151    138       12.40          0.1815E+06
  26239      1    151    139       12.81          0.1815E+06
  26240      1    151    140       12.26          0.1815E+06
  26241      1    151    141       14.81          0.1815E+06
  26242      1    151    142       16.01          0.1815E+06
  26243      1    151    143       17.50          0.1815E+06
  26244      1    151    144       19.67          0.1815E+06
  26245      1    151    145       21.78          0.1815E+06
  26246      1    151    146       23.67          0.1815E+06
  26247      1    151    147       25.79          0.1815E+06
  26248      1    151    148       27.51          0.1815E+06
  26249      1    151    149       27.12          0.1815E+06
  26250      1    151    150       29.10          0.1815E+06
  26251      1    151    151       32.00          0.1815E+06
  26252      1    151    152       34.70          0.1815E+06
  26253      1    151    153       36.60          0.1815E+06
  26254      1    151    154       37.30          0.1815E+06
  26255      1    151    155       37.40          0.1815E+06
  26256      1    151    156       37.30          0.1815E+06
  26257      1    151    157       36.60          0.1815E+06
  26258      1    151    158       35.10          0.1815E+06
  26259      1    151    159       33.80          0.1815E+06
  26260      1    151    160       33.20          0.1815E+06
  26261      1    151    161       33.50          0.1815E+06
  26262      1    151    162       34.00          0.1815E+06
  26263      1    151    163       34.10          0.1815E+06
  26264      1    151    164       33.90          0.1815E+06
  26265      1    151    165       33.90          0.1815E+06
  26266      1    151    166       34.70          0.1815E+06
  26267      1    151    167       36.00          0.1815E+06
  26268      1    151    168       36.50          0.1815E+06
  26269      1    151    169       36.50          0.1815E+06
  26270      1    151    170       36.00          0.1815E+06
  26271      1    151    171       35.10          0.1815E+06
  26272      1    151    172       34.00          0.1815E+06
  26273      1    151    173       33.60          0.1815E+06
  26274      1    151    174       34.40          0.1815E+06
  26275      1    152      1      -10.98          0.1815E+06
  26276      1    152      2      -13.08          0.1815E+06
  26277      1    152      3      -13.08          0.1815E+06
  26278      1    152      4      -12.71          0.1815E+06
  26279      1    152      5      -12.69          0.1815E+06
  26280      1    152      6      -12.39          0.1815E+06
  26281      1    152      7      -12.09          0.1815E+06
  26282      1    152      8      -12.29          0.1815E+06
  26283      1    152      9      -12.29          0.1815E+06
  26284      1    152     10      -13.69          0.1815E+06
  26285      1    152     11      -14.19          0.1815E+06
  26286      1    152     12      -15.09          0.1815E+06
  26287      1    152     13      -15.09          0.1815E+06
  26288      1    152     14      -15.20          0.1815E+06
  26289      1    152     15      -15.20          0.1815E+06
  26290      1    152     16      -15.10          0.1815E+06
  26291      1    152     17      -15.10          0.1815E+06
  26292      1    152     18      -15.28          0.1815E+06
  26293      1    152     19      -15.10          0.1815E+06
  26294      1    152     20      -15.27          0.1815E+06
  26295      1    152     21      -15.27          0.1815E+06
  26296      1    152     22      -14.90          0.1815E+06
  26297      1    152     23      -14.70          0.1815E+06
  26298      1    152     24      -14.50          0.1815E+06
  26299      1    152     25      -14.41          0.1815E+06
  26300      1    152     26      -14.41          0.1815E+06
  26301      1    152     27      -13.31          0.1815E+06
  26302      1    152     28      -13.01          0.1815E+06
  26303      1    152     29      -11.56          0.1815E+06
  26304      1    152     30      -9.810          0.1815E+06
  26305      1    152     31      -10.48          0.1815E+06
  26306      1    152     32      -10.48          0.1815E+06
  26307      1    152     33      -9.710          0.1815E+06
  26308      1    152     34      -10.78          0.1815E+06
  26309      1    152     35      -9.700          0.1815E+06
  26310      1    152     36      -6.600          0.1815E+06
  26311      1    152     37      -5.400          0.1815E+06
  26312      1    152     38      -5.400          0.1815E+06
  26313      1    152     39      -5.800          0.1815E+06
  26314      1    152     40      -4.800          0.1815E+06
  26315      1    152     41      -4.950          0.1815E+06
  26316      1    152     42      -5.290          0.1815E+06
  26317      1    152     43      -5.050          0.1815E+06
  26318      1    152     44      -5.050          0.1815E+06
  26319      1    152     45      -4.400          0.1815E+06
  26320      1    152     46      -3.890          0.1815E+06
  26321      1    152     47      -3.490          0.1815E+06
  26322      1    152     48      -3.690          0.1815E+06
  26323      1    152     49      -3.690          0.1815E+06
  26324      1    152     50      -3.690          0.1815E+06
  26325      1    152     51      -3.090          0.1815E+06
  26326      1    152     52      -2.790          0.1815E+06
  26327      1    152     53      -2.590          0.1815E+06
  26328      1    152     54      -2.580          0.1815E+06
  26329      1    152     55      -2.580          0.1815E+06
  26330      1    152     56      0.5700          0.1815E+06
  26331      1    152     57       2.080          0.1815E+06
  26332      1    152     58       4.080          0.1815E+06
  26333      1    152     59       4.670          0.1815E+06
  26334      1    152     60       11.03          0.1815E+06
  26335      1    152     61       7.320          0.1815E+06
  26336      1    152     62       7.820          0.1815E+06
  26337      1    152     63       9.270          0.1815E+06
  26338      1    152     64       8.720          0.1815E+06
  26339      1    152     65       8.640          0.1815E+06
  26340      1    152     66       9.500          0.1815E+06
  26341      1    152     67       9.890          0.1815E+06
  26342      1    152     68       9.760          0.1815E+06
  26343      1    152     69       10.32          0.1815E+06
  26344      1    152     70       10.39          0.1815E+06
  26345      1    152     71       12.03          0.1815E+06
  26346      1    152     72       10.42          0.1815E+06
  26347      1    152     73       10.34          0.1815E+06
  26348      1    152     74       10.53          0.1815E+06
  26349      1    152     75       10.92          0.1815E+06
  26350      1    152     76       11.10          0.1815E+06
  26351      1    152     77       11.06          0.1815E+06
  26352      1    152     78       10.64          0.1815E+06
  26353      1    152     79       10.60          0.1815E+06
  26354      1    152     80       10.67          0.1815E+06
  26355      1    152     81       10.63          0.1815E+06
  26356      1    152     82       10.72          0.1815E+06
  26357      1    152     83       10.57          0.1815E+06
  26358      1    152     84       10.63          0.1815E+06
  26359      1    152     85       10.72          0.1815E+06
  26360      1    152     86       9.760          0.1815E+06
  26361      1    152     87       9.460          0.1815E+06
  26362      1    152     88       9.310          0.1815E+06
  26363      1    152     89       9.380          0.1815E+06
  26364      1    152     90       8.530          0.1815E+06
  26365      1    152     91       8.380          0.1815E+06
  26366      1    152     92       7.840          0.1815E+06
  26367      1    152     93       6.800          0.1815E+06
  26368      1    152     94       7.190          0.1815E+06
  26369      1    152     95       7.190          0.1815E+06
  26370      1    152     96       5.700          0.1815E+06
  26371      1    152     97       9.600          0.1815E+06
  26372      1    152     98       10.56          0.1815E+06
  26373      1    152     99       11.02          0.1815E+06
  26374      1    152    100       11.94          0.1815E+06
  26375      1    152    101       11.42          0.1815E+06
  26376      1    152    102       11.28          0.1815E+06
  26377      1    152    103       11.76          0.1815E+06
  26378      1    152    104       11.94          0.1815E+06
  26379      1    152    105       12.10          0.1815E+06
  26380      1    152    106       11.52          0.1815E+06
  26381      1    152    107       10.10          0.1815E+06
  26382      1    152    108       10.22          0.1815E+06
  26383      1    152    109       10.31          0.1815E+06
  26384      1    152    110       12.81          0.1815E+06
  26385      1    152    111       13.55          0.1815E+06
  26386      1    152    112       13.65          0.1815E+06
  26387      1    152    113       13.59          0.1815E+06
  26388      1    152    114       15.02          0.1815E+06
  26389      1    152    115       16.84          0.1815E+06
  26390      1    152    116       18.79          0.1815E+06
  26391      1    152    117       20.10          0.1815E+06
  26392      1    152    118       17.95          0.1815E+06
  26393      1    152    119       12.00          0.1815E+06
  26394      1    152    120       6.510          0.1815E+06
  26395      1    152    121       5.760          0.1815E+06
  26396      1    152    122       5.670          0.1815E+06
  26397      1    152    123       6.380          0.1815E+06
  26398      1    152    124       8.680          0.1815E+06
  26399      1    152    125       11.88          0.1815E+06
  26400      1    152    126       15.13          0.1815E+06
  26401      1    152    127       15.93          0.1815E+06
  26402      1    152    128       16.68          0.1815E+06
  26403      1    152    129       17.54          0.1815E+06
  26404      1    152    130       17.05          0.1815E+06
  26405      1    152    131       16.36          0.1815E+06
  26406      1    152    132       15.10          0.1815E+06
  26407      1    152    133       12.36          0.1815E+06
  26408      1    152    134       9.930          0.1815E+06
  26409      1    152    135       8.110          0.1815E+06
  26410      1    152    136       7.530          0.1815E+06
  26411      1    152    137       9.940          0.1815E+06
  26412      1    152    138       10.76          0.1815E+06
  26413      1    152    139       11.89          0.1815E+06
  26414      1    152    140       13.96          0.1815E+06
  26415      1    152    141       14.57          0.1815E+06
  26416      1    152    142       15.61          0.1815E+06
  26417      1    152    143       16.82          0.1815E+06
  26418      1    152    144       18.93          0.1815E+06
  26419      1    152    145       20.90          0.1815E+06
  26420      1    152    146       22.80          0.1815E+06
  26421      1    152    147       24.12          0.1815E+06
  26422      1    152    148       25.95          0.1815E+06
  26423      1    152    149       27.05          0.1815E+06
  26424      1    152    150       28.74          0.1815E+06
  26425      1    152    151       30.90          0.1815E+06
  26426      1    152    152       33.50          0.1815E+06
  26427      1    152    153       35.70          0.1815E+06
  26428      1    152    154       36.50          0.1815E+06
  26429      1    152    155       36.80          0.1815E+06
  26430      1    152    156       36.70          0.1815E+06
  26431      1    152    157       36.10          0.1815E+06
  26432      1    152    158       34.50          0.1815E+06
  26433      1    152    159       33.10          0.1815E+06
  26434      1    152    160       32.50          0.1815E+06
  26435      1    152    161       32.60          0.1815E+06
  26436      1    152    162       32.80          0.1815E+06
  26437      1    152    163       32.20          0.1815E+06
  26438      1    152    164       32.10          0.1815E+06
  26439      1    152    165       33.00          0.1815E+06
  26440      1    152    166       34.50          0.1815E+06
  26441      1    152    167       35.60          0.1815E+06
  26442      1    152    168       35.80          0.1815E+06
  26443      1    152    169       35.30          0.1815E+06
  26444      1    152    170       34.90          0.1815E+06
  26445      1    152    171       34.10          0.1815E+06
  26446      1    152    172       32.70          0.1815E+06
  26447      1    152    173       32.40          0.1815E+06
  26448      1    152    174       33.10          0.1815E+06
  26449      1    153      1      -13.18          0.1815E+06
  26450      1    153      2      -12.98          0.1815E+06
  26451      1    153      3      -12.98          0.1815E+06
  26452      1    153      4      -12.69          0.1815E+06
  26453      1    153      5      -12.69          0.1815E+06
  26454      1    153      6      -11.89          0.1815E+06
  26455      1    153      7      -12.09          0.1815E+06
  26456      1    153      8      -12.29          0.1815E+06
  26457      1    153      9      -12.29          0.1815E+06
  26458      1    153     10      -12.39          0.1815E+06
  26459      1    153     11      -13.99          0.1815E+06
  26460      1    153     12      -15.40          0.1815E+06
  26461      1    153     13      -15.85          0.1815E+06
  26462      1    153     14      -15.10          0.1815E+06
  26463      1    153     15      -15.10          0.1815E+06
  26464      1    153     16      -14.80          0.1815E+06
  26465      1    153     17      -14.89          0.1815E+06
  26466      1    153     18      -15.00          0.1815E+06
  26467      1    153     19      -14.70          0.1815E+06
  26468      1    153     20      -15.20          0.1815E+06
  26469      1    153     21      -15.20          0.1815E+06
  26470      1    153     22      -14.10          0.1815E+06
  26471      1    153     23      -14.10          0.1815E+06
  26472      1    153     24      -13.41          0.1815E+06
  26473      1    153     25      -13.36          0.1815E+06
  26474      1    153     26      -13.36          0.1815E+06
  26475      1    153     27      -12.20          0.1815E+06
  26476      1    153     28      -11.61          0.1815E+06
  26477      1    153     29      -11.56          0.1815E+06
  26478      1    153     30      -9.810          0.1815E+06
  26479      1    153     31      -10.48          0.1815E+06
  26480      1    153     32      -10.48          0.1815E+06
  26481      1    153     33      -9.710          0.1815E+06
  26482      1    153     34      -9.600          0.1815E+06
  26483      1    153     35      -7.800          0.1815E+06
  26484      1    153     36      -5.000          0.1815E+06
  26485      1    153     37      -5.400          0.1815E+06
  26486      1    153     38      -5.400          0.1815E+06
  26487      1    153     39      -5.740          0.1815E+06
  26488      1    153     40      -5.290          0.1815E+06
  26489      1    153     41      -4.950          0.1815E+06
  26490      1    153     42      -5.100          0.1815E+06
  26491      1    153     43      -5.200          0.1815E+06
  26492      1    153     44      -5.200          0.1815E+06
  26493      1    153     45      -4.390          0.1815E+06
  26494      1    153     46      -3.890          0.1815E+06
  26495      1    153     47      -3.890          0.1815E+06
  26496      1    153     48      -3.690          0.1815E+06
  26497      1    153     49      -3.690          0.1815E+06
  26498      1    153     50      -4.190          0.1815E+06
  26499      1    153     51      -3.790          0.1815E+06
  26500      1    153     52      -3.590          0.1815E+06
  26501      1    153     53      -3.460          0.1815E+06
  26502      1    153     54      -2.580          0.1815E+06
  26503      1    153     55      -2.580          0.1815E+06
  26504      1    153     56      0.5700          0.1815E+06
  26505      1    153     57       2.080          0.1815E+06
  26506      1    153     58       4.080          0.1815E+06
  26507      1    153     59       6.580          0.1815E+06
  26508      1    153     60       7.320          0.1815E+06
  26509      1    153     61       9.600          0.1815E+06
  26510      1    153     62       7.480          0.1815E+06
  26511      1    153     63       10.30          0.1815E+06
  26512      1    153     64       8.520          0.1815E+06
  26513      1    153     65       8.480          0.1815E+06
  26514      1    153     66       9.670          0.1815E+06
  26515      1    153     67       10.05          0.1815E+06
  26516      1    153     68       9.710          0.1815E+06
  26517      1    153     69       10.38          0.1815E+06
  26518      1    153     70       10.56          0.1815E+06
  26519      1    153     71       10.93          0.1815E+06
  26520      1    153     72       10.63          0.1815E+06
  26521      1    153     73       10.57          0.1815E+06
  26522      1    153     74       12.34          0.1815E+06
  26523      1    153     75       10.89          0.1815E+06
  26524      1    153     76       10.84          0.1815E+06
  26525      1    153     77       11.56          0.1815E+06
  26526      1    153     78       10.78          0.1815E+06
  26527      1    153     79       10.21          0.1815E+06
  26528      1    153     80       10.67          0.1815E+06
  26529      1    153     81       10.39          0.1815E+06
  26530      1    153     82       10.47          0.1815E+06
  26531      1    153     83       10.94          0.1815E+06
  26532      1    153     84       10.64          0.1815E+06
  26533      1    153     85       10.11          0.1815E+06
  26534      1    153     86       9.860          0.1815E+06
  26535      1    153     87       10.73          0.1815E+06
  26536      1    153     88       9.360          0.1815E+06
  26537      1    153     89       9.430          0.1815E+06
  26538      1    153     90       8.630          0.1815E+06
  26539      1    153     91       8.150          0.1815E+06
  26540      1    153     92       8.090          0.1815E+06
  26541      1    153     93       7.780          0.1815E+06
  26542      1    153     94       8.770          0.1815E+06
  26543      1    153     95       5.980          0.1815E+06
  26544      1    153     96       6.920          0.1815E+06
  26545      1    153     97       9.060          0.1815E+06
  26546      1    153     98       10.72          0.1815E+06
  26547      1    153     99       11.15          0.1815E+06
  26548      1    153    100       11.55          0.1815E+06
  26549      1    153    101       10.88          0.1815E+06
  26550      1    153    102       11.14          0.1815E+06
  26551      1    153    103       11.02          0.1815E+06
  26552      1    153    104       10.38          0.1815E+06
  26553      1    153    105       8.810          0.1815E+06
  26554      1    153    106       7.940          0.1815E+06
  26555      1    153    107       8.970          0.1815E+06
  26556      1    153    108       9.750          0.1815E+06
  26557      1    153    109       11.11          0.1815E+06
  26558      1    153    110       12.90          0.1815E+06
  26559      1    153    111       13.56          0.1815E+06
  26560      1    153    112       13.97          0.1815E+06
  26561      1    153    113       14.47          0.1815E+06
  26562      1    153    114       16.25          0.1815E+06
  26563      1    153    115       17.23          0.1815E+06
  26564      1    153    116       18.64          0.1815E+06
  26565      1    153    117       19.13          0.1815E+06
  26566      1    153    118       16.73          0.1815E+06
  26567      1    153    119       12.06          0.1815E+06
  26568      1    153    120       5.940          0.1815E+06
  26569      1    153    121       5.980          0.1815E+06
  26570      1    153    122       6.070          0.1815E+06
  26571      1    153    123       9.680          0.1815E+06
  26572      1    153    124       12.52          0.1815E+06
  26573      1    153    125       14.80          0.1815E+06
  26574      1    153    126       16.81          0.1815E+06
  26575      1    153    127       17.70          0.1815E+06
  26576      1    153    128       17.15          0.1815E+06
  26577      1    153    129       17.60          0.1815E+06
  26578      1    153    130       16.68          0.1815E+06
  26579      1    153    131       14.01          0.1815E+06
  26580      1    153    132       10.50          0.1815E+06
  26581      1    153    133       8.180          0.1815E+06
  26582      1    153    134       6.670          0.1815E+06
  26583      1    153    135       6.710          0.1815E+06
  26584      1    153    136       8.030          0.1815E+06
  26585      1    153    137       9.310          0.1815E+06
  26586      1    153    138       9.430          0.1815E+06
  26587      1    153    139       13.13          0.1815E+06
  26588      1    153    140       11.36          0.1815E+06
  26589      1    153    141       12.98          0.1815E+06
  26590      1    153    142       13.98          0.1815E+06
  26591      1    153    143       15.71          0.1815E+06
  26592      1    153    144       18.02          0.1815E+06
  26593      1    153    145       18.79          0.1815E+06
  26594      1    153    146       19.89          0.1815E+06
  26595      1    153    147       20.72          0.1815E+06
  26596      1    153    148       22.12          0.1815E+06
  26597      1    153    149       26.18          0.1815E+06
  26598      1    153    150       27.59          0.1815E+06
  26599      1    153    151       29.71          0.1815E+06
  26600      1    153    152       31.90          0.1815E+06
  26601      1    153    153       33.90          0.1815E+06
  26602      1    153    154       35.40          0.1815E+06
  26603      1    153    155       35.60          0.1815E+06
  26604      1    153    156       35.40          0.1815E+06
  26605      1    153    157       34.10          0.1815E+06
  26606      1    153    158       32.40          0.1815E+06
  26607      1    153    159       32.40          0.1815E+06
  26608      1    153    160       32.50          0.1815E+06
  26609      1    153    161       32.50          0.1815E+06
  26610      1    153    162       32.50          0.1815E+06
  26611      1    153    163       31.60          0.1815E+06
  26612      1    153    164       30.60          0.1815E+06
  26613      1    153    165       32.80          0.1815E+06
  26614      1    153    166       35.10          0.1815E+06
  26615      1    153    167       35.80          0.1815E+06
  26616      1    153    168       35.50          0.1815E+06
  26617      1    153    169       34.60          0.1815E+06
  26618      1    153    170       33.90          0.1815E+06
  26619      1    153    171       33.10          0.1815E+06
  26620      1    153    172       31.60          0.1815E+06
  26621      1    153    173       30.60          0.1815E+06
  26622      1    153    174       31.30          0.1815E+06
  26623      1    154      1      -13.18          0.1815E+06
  26624      1    154      2      -12.98          0.1815E+06
  26625      1    154      3      -12.98          0.1815E+06
  26626      1    154      4      -12.69          0.1815E+06
  26627      1    154      5      -12.69          0.1815E+06
  26628      1    154      6      -12.49          0.1815E+06
  26629      1    154      7      -12.09          0.1815E+06
  26630      1    154      8      -12.09          0.1815E+06
  26631      1    154      9      -12.09          0.1815E+06
  26632      1    154     10      -13.79          0.1815E+06
  26633      1    154     11      -14.80          0.1815E+06
  26634      1    154     12      -15.20          0.1815E+06
  26635      1    154     13      -15.40          0.1815E+06
  26636      1    154     14      -15.20          0.1815E+06
  26637      1    154     15      -15.20          0.1815E+06
  26638      1    154     16      -14.80          0.1815E+06
  26639      1    154     17      -14.60          0.1815E+06
  26640      1    154     18      -14.80          0.1815E+06
  26641      1    154     19      -14.30          0.1815E+06
  26642      1    154     20      -14.31          0.1815E+06
  26643      1    154     21      -14.31          0.1815E+06
  26644      1    154     22      -14.11          0.1815E+06
  26645      1    154     23      -13.71          0.1815E+06
  26646      1    154     24      -13.50          0.1815E+06
  26647      1    154     25      -13.36          0.1815E+06
  26648      1    154     26      -13.36          0.1815E+06
  26649      1    154     27      -12.20          0.1815E+06
  26650      1    154     28      -11.61          0.1815E+06
  26651      1    154     29      -11.16          0.1815E+06
  26652      1    154     30      -10.31          0.1815E+06
  26653      1    154     31      -9.110          0.1815E+06
  26654      1    154     32      -9.110          0.1815E+06
  26655      1    154     33      -8.710          0.1815E+06
  26656      1    154     34      -7.310          0.1815E+06
  26657      1    154     35      -6.910          0.1815E+06
  26658      1    154     36      -5.510          0.1815E+06
  26659      1    154     37      -5.660          0.1815E+06
  26660      1    154     38      -5.660          0.1815E+06
  26661      1    154     39      -5.800          0.1815E+06
  26662      1    154     40      -5.600          0.1815E+06
  26663      1    154     41      -4.900          0.1815E+06
  26664      1    154     42      -5.400          0.1815E+06
  26665      1    154     43      -5.070          0.1815E+06
  26666      1    154     44      -5.070          0.1815E+06
  26667      1    154     45      -4.500          0.1815E+06
  26668      1    154     46      -3.800          0.1815E+06
  26669      1    154     47      -3.400          0.1815E+06
  26670      1    154     48      -4.300          0.1815E+06
  26671      1    154     49      -4.300          0.1815E+06
  26672      1    154     50      -4.190          0.1815E+06
  26673      1    154     51      -3.790          0.1815E+06
  26674      1    154     52      -3.590          0.1815E+06
  26675      1    154     53      -3.460          0.1815E+06
  26676      1    154     54      -3.160          0.1815E+06
  26677      1    154     55      -3.160          0.1815E+06
  26678      1    154     56      0.5800          0.1815E+06
  26679      1    154     57       1.580          0.1815E+06
  26680      1    154     58       3.580          0.1815E+06
  26681      1    154     59       5.090          0.1815E+06
  26682      1    154     60       5.480          0.1815E+06
  26683      1    154     61       10.76          0.1815E+06
  26684      1    154     62       8.760          0.1815E+06
  26685      1    154     63       8.810          0.1815E+06
  26686      1    154     64       8.020          0.1815E+06
  26687      1    154     65       11.55          0.1815E+06
  26688      1    154     66       9.710          0.1815E+06
  26689      1    154     67       9.610          0.1815E+06
  26690      1    154     68       9.630          0.1815E+06
  26691      1    154     69       9.780          0.1815E+06
  26692      1    154     70       10.22          0.1815E+06
  26693      1    154     71       10.55          0.1815E+06
  26694      1    154     72       10.47          0.1815E+06
  26695      1    154     73       11.07          0.1815E+06
  26696      1    154     74       10.86          0.1815E+06
  26697      1    154     75       11.76          0.1815E+06
  26698      1    154     76       10.72          0.1815E+06
  26699      1    154     77       10.10          0.1815E+06
  26700      1    154     78       10.93          0.1815E+06
  26701      1    154     79       10.28          0.1815E+06
  26702      1    154     80       10.21          0.1815E+06
  26703      1    154     81       10.23          0.1815E+06
  26704      1    154     82       11.35          0.1815E+06
  26705      1    154     83       10.52          0.1815E+06
  26706      1    154     84       10.93          0.1815E+06
  26707      1    154     85       10.65          0.1815E+06
  26708      1    154     86       9.770          0.1815E+06
  26709      1    154     87       9.750          0.1815E+06
  26710      1    154     88       9.100          0.1815E+06
  26711      1    154     89       8.900          0.1815E+06
  26712      1    154     90       8.360          0.1815E+06
  26713      1    154     91       8.180          0.1815E+06
  26714      1    154     92       8.020          0.1815E+06
  26715      1    154     93       7.710          0.1815E+06
  26716      1    154     94       7.440          0.1815E+06
  26717      1    154     95       6.400          0.1815E+06
  26718      1    154     96       7.230          0.1815E+06
  26719      1    154     97       8.520          0.1815E+06
  26720      1    154     98       9.760          0.1815E+06
  26721      1    154     99       10.53          0.1815E+06
  26722      1    154    100       10.07          0.1815E+06
  26723      1    154    101       9.210          0.1815E+06
  26724      1    154    102       9.720          0.1815E+06
  26725      1    154    103       8.860          0.1815E+06
  26726      1    154    104       8.050          0.1815E+06
  26727      1    154    105       8.690          0.1815E+06
  26728      1    154    106       8.590          0.1815E+06
  26729      1    154    107       10.63          0.1815E+06
  26730      1    154    108       11.09          0.1815E+06
  26731      1    154    109       12.14          0.1815E+06
  26732      1    154    110       13.05          0.1815E+06
  26733      1    154    111       13.86          0.1815E+06
  26734      1    154    112       15.06          0.1815E+06
  26735      1    154    113       15.90          0.1815E+06
  26736      1    154    114       16.98          0.1815E+06
  26737      1    154    115       17.62          0.1815E+06
  26738      1    154    116       17.26          0.1815E+06
  26739      1    154    117       16.10          0.1815E+06
  26740      1    154    118       12.06          0.1815E+06
  26741      1    154    119       6.090          0.1815E+06
  26742      1    154    120       5.780          0.1815E+06
  26743      1    154    121       5.670          0.1815E+06
  26744      1    154    122       6.840          0.1815E+06
  26745      1    154    123       12.53          0.1815E+06
  26746      1    154    124       15.97          0.1815E+06
  26747      1    154    125       16.29          0.1815E+06
  26748      1    154    126       17.26          0.1815E+06
  26749      1    154    127       18.14          0.1815E+06
  26750      1    154    128       17.65          0.1815E+06
  26751      1    154    129       15.63          0.1815E+06
  26752      1    154    130       12.68          0.1815E+06
  26753      1    154    131       9.850          0.1815E+06
  26754      1    154    132       8.010          0.1815E+06
  26755      1    154    133       6.260          0.1815E+06
  26756      1    154    134       6.440          0.1815E+06
  26757      1    154    135       7.360          0.1815E+06
  26758      1    154    136       8.180          0.1815E+06
  26759      1    154    137       8.890          0.1815E+06
  26760      1    154    138       9.560          0.1815E+06
  26761      1    154    139       11.13          0.1815E+06
  26762      1    154    140       13.88          0.1815E+06
  26763      1    154    141       16.01          0.1815E+06
  26764      1    154    142       17.52          0.1815E+06
  26765      1    154    143       18.46          0.1815E+06
  26766      1    154    144       18.57          0.1815E+06
  26767      1    154    145       17.94          0.1815E+06
  26768      1    154    146       20.48          0.1815E+06
  26769      1    154    147       21.94          0.1815E+06
  26770      1    154    148       23.75          0.1815E+06
  26771      1    154    149       24.89          0.1815E+06
  26772      1    154    150       26.06          0.1815E+06
  26773      1    154    151       28.21          0.1815E+06
  26774      1    154    152       29.87          0.1815E+06
  26775      1    154    153       31.14          0.1815E+06
  26776      1    154    154       33.11          0.1815E+06
  26777      1    154    155       33.70          0.1815E+06
  26778      1    154    156       32.50          0.1815E+06
  26779      1    154    157       30.10          0.1815E+06
  26780      1    154    158       31.00          0.1815E+06
  26781      1    154    159       32.30          0.1815E+06
  26782      1    154    160       32.90          0.1815E+06
  26783      1    154    161       32.90          0.1815E+06
  26784      1    154    162       32.60          0.1815E+06
  26785      1    154    163       31.20          0.1815E+06
  26786      1    154    164       30.00          0.1815E+06
  26787      1    154    165       32.40          0.1815E+06
  26788      1    154    166       35.00          0.1815E+06
  26789      1    154    167       35.60          0.1815E+06
  26790      1    154    168       35.00          0.1815E+06
  26791      1    154    169       34.20          0.1815E+06
  26792      1    154    170       33.20          0.1815E+06
  26793      1    154    171       32.60          0.1815E+06
  26794      1    154    172       31.80          0.1815E+06
  26795      1    154    173       30.20          0.1815E+06
  26796      1    154    174       28.90          0.1815E+06
  26797      1    155      1      -13.28          0.1815E+06
  26798      1    155      2      -12.78          0.1815E+06
  26799      1    155      3      -12.78          0.1815E+06
  26800      1    155      4      -12.67          0.1815E+06
  26801      1    155      5      -12.49          0.1815E+06
  26802      1    155      6      -12.89          0.1815E+06
  26803      1    155      7      -12.20          0.1815E+06
  26804      1    155      8      -12.89          0.1815E+06
  26805      1    155      9      -12.89          0.1815E+06
  26806      1    155     10      -14.10          0.1815E+06
  26807      1    155     11      -14.70          0.1815E+06
  26808      1    155     12      -14.80          0.1815E+06
  26809      1    155     13      -14.93          0.1815E+06
  26810      1    155     14      -14.90          0.1815E+06
  26811      1    155     15      -14.90          0.1815E+06
  26812      1    155     16      -15.00          0.1815E+06
  26813      1    155     17      -14.31          0.1815E+06
  26814      1    155     18      -13.81          0.1815E+06
  26815      1    155     19      -13.81          0.1815E+06
  26816      1    155     20      -14.31          0.1815E+06
  26817      1    155     21      -14.31          0.1815E+06
  26818      1    155     22      -14.11          0.1815E+06
  26819      1    155     23      -13.71          0.1815E+06
  26820      1    155     24      -13.50          0.1815E+06
  26821      1    155     25      -10.11          0.1815E+06
  26822      1    155     26      -10.11          0.1815E+06
  26823      1    155     27      -10.01          0.1815E+06
  26824      1    155     28      -9.020          0.1815E+06
  26825      1    155     29      -10.91          0.1815E+06
  26826      1    155     30      -10.02          0.1815E+06
  26827      1    155     31      -9.710          0.1815E+06
  26828      1    155     32      -9.710          0.1815E+06
  26829      1    155     33      -8.910          0.1815E+06
  26830      1    155     34      -5.710          0.1815E+06
  26831      1    155     35      -6.050          0.1815E+06
  26832      1    155     36      -6.310          0.1815E+06
  26833      1    155     37      -6.210          0.1815E+06
  26834      1    155     38      -6.210          0.1815E+06
  26835      1    155     39      -5.910          0.1815E+06
  26836      1    155     40      -5.310          0.1815E+06
  26837      1    155     41      -5.060          0.1815E+06
  26838      1    155     42      -5.200          0.1815E+06
  26839      1    155     43      -4.700          0.1815E+06
  26840      1    155     44      -4.700          0.1815E+06
  26841      1    155     45      -4.500          0.1815E+06
  26842      1    155     46      -3.800          0.1815E+06
  26843      1    155     47      -3.400          0.1815E+06
  26844      1    155     48      -4.300          0.1815E+06
  26845      1    155     49      -4.300          0.1815E+06
  26846      1    155     50      -4.200          0.1815E+06
  26847      1    155     51      -4.160          0.1815E+06
  26848      1    155     52      -3.900          0.1815E+06
  26849      1    155     53      -3.830          0.1815E+06
  26850      1    155     54      -3.630          0.1815E+06
  26851      1    155     55      -3.630          0.1815E+06
  26852      1    155     56      0.5700          0.1815E+06
  26853      1    155     57      0.5800          0.1815E+06
  26854      1    155     58       2.590          0.1815E+06
  26855      1    155     59       3.590          0.1815E+06
  26856      1    155     60       4.400          0.1815E+06
  26857      1    155     61       10.64          0.1815E+06
  26858      1    155     62       8.050          0.1815E+06
  26859      1    155     63       8.310          0.1815E+06
  26860      1    155     64       7.610          0.1815E+06
  26861      1    155     65       14.25          0.1815E+06
  26862      1    155     66       9.170          0.1815E+06
  26863      1    155     67       9.720          0.1815E+06
  26864      1    155     68       9.920          0.1815E+06
  26865      1    155     69       9.890          0.1815E+06
  26866      1    155     70       9.800          0.1815E+06
  26867      1    155     71       10.10          0.1815E+06
  26868      1    155     72       10.60          0.1815E+06
  26869      1    155     73       10.52          0.1815E+06
  26870      1    155     74       11.15          0.1815E+06
  26871      1    155     75       10.72          0.1815E+06
  26872      1    155     76       10.51          0.1815E+06
  26873      1    155     77       10.69          0.1815E+06
  26874      1    155     78       11.02          0.1815E+06
  26875      1    155     79       10.19          0.1815E+06
  26876      1    155     80       10.26          0.1815E+06
  26877      1    155     81       10.32          0.1815E+06
  26878      1    155     82       10.82          0.1815E+06
  26879      1    155     83       10.30          0.1815E+06
  26880      1    155     84       10.60          0.1815E+06
  26881      1    155     85       11.69          0.1815E+06
  26882      1    155     86       9.900          0.1815E+06
  26883      1    155     87       9.810          0.1815E+06
  26884      1    155     88       9.390          0.1815E+06
  26885      1    155     89       8.900          0.1815E+06
  26886      1    155     90       8.560          0.1815E+06
  26887      1    155     91       9.210          0.1815E+06
  26888      1    155     92       8.090          0.1815E+06
  26889      1    155     93       8.060          0.1815E+06
  26890      1    155     94       8.140          0.1815E+06
  26891      1    155     95       8.400          0.1815E+06
  26892      1    155     96       8.210          0.1815E+06
  26893      1    155     97       7.840          0.1815E+06
  26894      1    155     98       7.920          0.1815E+06
  26895      1    155     99       8.760          0.1815E+06
  26896      1    155    100       8.150          0.1815E+06
  26897      1    155    101       6.800          0.1815E+06
  26898      1    155    102       6.690          0.1815E+06
  26899      1    155    103       6.710          0.1815E+06
  26900      1    155    104       7.070          0.1815E+06
  26901      1    155    105       8.640          0.1815E+06
  26902      1    155    106       9.900          0.1815E+06
  26903      1    155    107       11.78          0.1815E+06
  26904      1    155    108       12.35          0.1815E+06
  26905      1    155    109       12.55          0.1815E+06
  26906      1    155    110       12.97          0.1815E+06
  26907      1    155    111       14.27          0.1815E+06
  26908      1    155    112       15.22          0.1815E+06
  26909      1    155    113       15.68          0.1815E+06
  26910      1    155    114       16.19          0.1815E+06
  26911      1    155    115       16.87          0.1815E+06
  26912      1    155    116       13.51          0.1815E+06
  26913      1    155    117       11.46          0.1815E+06
  26914      1    155    118       7.150          0.1815E+06
  26915      1    155    119       5.880          0.1815E+06
  26916      1    155    120       6.070          0.1815E+06
  26917      1    155    121       8.380          0.1815E+06
  26918      1    155    122       10.88          0.1815E+06
  26919      1    155    123       14.27          0.1815E+06
  26920      1    155    124       16.29          0.1815E+06
  26921      1    155    125       17.13          0.1815E+06
  26922      1    155    126       17.53          0.1815E+06
  26923      1    155    127       17.51          0.1815E+06
  26924      1    155    128       14.19          0.1815E+06
  26925      1    155    129       10.56          0.1815E+06
  26926      1    155    130       8.850          0.1815E+06
  26927      1    155    131       6.400          0.1815E+06
  26928      1    155    132       6.190          0.1815E+06
  26929      1    155    133       6.690          0.1815E+06
  26930      1    155    134       6.590          0.1815E+06
  26931      1    155    135       7.050          0.1815E+06
  26932      1    155    136       7.420          0.1815E+06
  26933      1    155    137       7.960          0.1815E+06
  26934      1    155    138       9.140          0.1815E+06
  26935      1    155    139       11.22          0.1815E+06
  26936      1    155    140       14.42          0.1815E+06
  26937      1    155    141       16.92          0.1815E+06
  26938      1    155    142       18.42          0.1815E+06
  26939      1    155    143       19.34          0.1815E+06
  26940      1    155    144       19.63          0.1815E+06
  26941      1    155    145       20.36          0.1815E+06
  26942      1    155    146       20.39          0.1815E+06
  26943      1    155    147       21.50          0.1815E+06
  26944      1    155    148       22.85          0.1815E+06
  26945      1    155    149       24.20          0.1815E+06
  26946      1    155    150       25.85          0.1815E+06
  26947      1    155    151       27.17          0.1815E+06
  26948      1    155    152       27.87          0.1815E+06
  26949      1    155    153       29.06          0.1815E+06
  26950      1    155    154       29.61          0.1815E+06
  26951      1    155    155       30.27          0.1815E+06
  26952      1    155    156       28.71          0.1815E+06
  26953      1    155    157       30.65          0.1815E+06
  26954      1    155    158       33.46          0.1815E+06
  26955      1    155    159       33.23          0.1815E+06
  26956      1    155    160       33.15          0.1815E+06
  26957      1    155    161       33.10          0.1815E+06
  26958      1    155    162       32.50          0.1815E+06
  26959      1    155    163       30.80          0.1815E+06
  26960      1    155    164       29.40          0.1815E+06
  26961      1    155    165       31.70          0.1815E+06
  26962      1    155    166       34.40          0.1815E+06
  26963      1    155    167       35.00          0.1815E+06
  26964      1    155    168       34.40          0.1815E+06
  26965      1    155    169       33.50          0.1815E+06
  26966      1    155    170       32.80          0.1815E+06
  26967      1    155    171       32.20          0.1815E+06
  26968      1    155    172       31.80          0.1815E+06
  26969      1    155    173       30.80          0.1815E+06
  26970      1    155    174       28.60          0.1815E+06
  26971      1    156      1      -11.69          0.1815E+06
  26972      1    156      2      -12.09          0.1815E+06
  26973      1    156      3      -12.09          0.1815E+06
  26974      1    156      4      -12.69          0.1815E+06
  26975      1    156      5      -12.49          0.1815E+06
  26976      1    156      6      -12.91          0.1815E+06
  26977      1    156      7      -11.80          0.1815E+06
  26978      1    156      8      -11.90          0.1815E+06
  26979      1    156      9      -11.90          0.1815E+06
  26980      1    156     10      -13.60          0.1815E+06
  26981      1    156     11      -13.10          0.1815E+06
  26982      1    156     12      -13.90          0.1815E+06
  26983      1    156     13      -14.50          0.1815E+06
  26984      1    156     14      -15.10          0.1815E+06
  26985      1    156     15      -15.10          0.1815E+06
  26986      1    156     16      -15.00          0.1815E+06
  26987      1    156     17      -14.31          0.1815E+06
  26988      1    156     18      -13.81          0.1815E+06
  26989      1    156     19      -13.81          0.1815E+06
  26990      1    156     20      -14.21          0.1815E+06
  26991      1    156     21      -14.21          0.1815E+06
  26992      1    156     22      -12.21          0.1815E+06
  26993      1    156     23      -11.01          0.1815E+06
  26994      1    156     24      -9.910          0.1815E+06
  26995      1    156     25      -10.81          0.1815E+06
  26996      1    156     26      -10.81          0.1815E+06
  26997      1    156     27      -10.81          0.1815E+06
  26998      1    156     28      -9.770          0.1815E+06
  26999      1    156     29      -9.720          0.1815E+06
  27000      1    156     30      -9.720          0.1815E+06
  27001      1    156     31      -9.320          0.1815E+06
  27002      1    156     32      -9.320          0.1815E+06
  27003      1    156     33      -8.320          0.1815E+06
  27004      1    156     34      -5.920          0.1815E+06
  27005      1    156     35      -6.210          0.1815E+06
  27006      1    156     36      -6.560          0.1815E+06
  27007      1    156     37      -7.410          0.1815E+06
  27008      1    156     38      -7.410          0.1815E+06
  27009      1    156     39      -5.810          0.1815E+06
  27010      1    156     40      -5.110          0.1815E+06
  27011      1    156     41      -5.060          0.1815E+06
  27012      1    156     42      -5.200          0.1815E+06
  27013      1    156     43      -4.700          0.1815E+06
  27014      1    156     44      -4.700          0.1815E+06
  27015      1    156     45      -4.200          0.1815E+06
  27016      1    156     46      -4.700          0.1815E+06
  27017      1    156     47      -4.800          0.1815E+06
  27018      1    156     48      -4.700          0.1815E+06
  27019      1    156     49      -4.700          0.1815E+06
  27020      1    156     50      -4.650          0.1815E+06
  27021      1    156     51      -4.400          0.1815E+06
  27022      1    156     52      -3.790          0.1815E+06
  27023      1    156     53      -3.850          0.1815E+06
  27024      1    156     54      -3.490          0.1815E+06
  27025      1    156     55      -3.490          0.1815E+06
  27026      1    156     56      -3.790          0.1815E+06
  27027      1    156     57      0.5800          0.1815E+06
  27028      1    156     58       1.080          0.1815E+06
  27029      1    156     59       2.580          0.1815E+06
  27030      1    156     60       7.100          0.1815E+06
  27031      1    156     61       7.100          0.1815E+06
  27032      1    156     62       10.05          0.1815E+06
  27033      1    156     63       8.710          0.1815E+06
  27034      1    156     64       8.710          0.1815E+06
  27035      1    156     65       10.27          0.1815E+06
  27036      1    156     66       9.630          0.1815E+06
  27037      1    156     67       9.800          0.1815E+06
  27038      1    156     68       9.730          0.1815E+06
  27039      1    156     69       10.02          0.1815E+06
  27040      1    156     70       9.970          0.1815E+06
  27041      1    156     71       9.680          0.1815E+06
  27042      1    156     72       10.21          0.1815E+06
  27043      1    156     73       10.13          0.1815E+06
  27044      1    156     74       10.78          0.1815E+06
  27045      1    156     75       10.71          0.1815E+06
  27046      1    156     76       10.73          0.1815E+06
  27047      1    156     77       10.97          0.1815E+06
  27048      1    156     78       11.55          0.1815E+06
  27049      1    156     79       10.56          0.1815E+06
  27050      1    156     80       10.64          0.1815E+06
  27051      1    156     81       10.35          0.1815E+06
  27052      1    156     82       10.48          0.1815E+06
  27053      1    156     83       10.22          0.1815E+06
  27054      1    156     84       9.850          0.1815E+06
  27055      1    156     85       10.27          0.1815E+06
  27056      1    156     86       9.890          0.1815E+06
  27057      1    156     87       9.980          0.1815E+06
  27058      1    156     88       9.320          0.1815E+06
  27059      1    156     89       9.900          0.1815E+06
  27060      1    156     90       8.810          0.1815E+06
  27061      1    156     91       8.720          0.1815E+06
  27062      1    156     92       8.260          0.1815E+06
  27063      1    156     93       7.650          0.1815E+06
  27064      1    156     94       7.280          0.1815E+06
  27065      1    156     95       6.780          0.1815E+06
  27066      1    156     96       5.710          0.1815E+06
  27067      1    156     97       6.710          0.1815E+06
  27068      1    156     98       6.960          0.1815E+06
  27069      1    156     99       8.350          0.1815E+06
  27070      1    156    100       7.190          0.1815E+06
  27071      1    156    101       6.920          0.1815E+06
  27072      1    156    102       6.710          0.1815E+06
  27073      1    156    103       7.130          0.1815E+06
  27074      1    156    104       9.140          0.1815E+06
  27075      1    156    105       10.77          0.1815E+06
  27076      1    156    106       11.93          0.1815E+06
  27077      1    156    107       12.14          0.1815E+06
  27078      1    156    108       12.09          0.1815E+06
  27079      1    156    109       13.75          0.1815E+06
  27080      1    156    110       13.48          0.1815E+06
  27081      1    156    111       14.06          0.1815E+06
  27082      1    156    112       14.81          0.1815E+06
  27083      1    156    113       15.23          0.1815E+06
  27084      1    156    114       15.63          0.1815E+06
  27085      1    156    115       15.35          0.1815E+06
  27086      1    156    116       13.56          0.1815E+06
  27087      1    156    117       10.85          0.1815E+06
  27088      1    156    118       7.860          0.1815E+06
  27089      1    156    119       9.690          0.1815E+06
  27090      1    156    120       10.69          0.1815E+06
  27091      1    156    121       11.10          0.1815E+06
  27092      1    156    122       13.93          0.1815E+06
  27093      1    156    123       15.77          0.1815E+06
  27094      1    156    124       16.42          0.1815E+06
  27095      1    156    125       17.23          0.1815E+06
  27096      1    156    126       16.65          0.1815E+06
  27097      1    156    127       13.76          0.1815E+06
  27098      1    156    128       8.840          0.1815E+06
  27099      1    156    129       6.190          0.1815E+06
  27100      1    156    130       6.110          0.1815E+06
  27101      1    156    131       6.090          0.1815E+06
  27102      1    156    132       7.090          0.1815E+06
  27103      1    156    133       7.110          0.1815E+06
  27104      1    156    134       7.460          0.1815E+06
  27105      1    156    135       7.010          0.1815E+06
  27106      1    156    136       7.190          0.1815E+06
  27107      1    156    137       7.730          0.1815E+06
  27108      1    156    138       8.760          0.1815E+06
  27109      1    156    139       11.18          0.1815E+06
  27110      1    156    140       15.77          0.1815E+06
  27111      1    156    141       18.48          0.1815E+06
  27112      1    156    142       19.60          0.1815E+06
  27113      1    156    143       20.95          0.1815E+06
  27114      1    156    144       21.52          0.1815E+06
  27115      1    156    145       20.73          0.1815E+06
  27116      1    156    146       21.97          0.1815E+06
  27117      1    156    147       22.59          0.1815E+06
  27118      1    156    148       23.20          0.1815E+06
  27119      1    156    149       24.01          0.1815E+06
  27120      1    156    150       25.02          0.1815E+06
  27121      1    156    151       26.03          0.1815E+06
  27122      1    156    152       25.60          0.1815E+06
  27123      1    156    153       26.20          0.1815E+06
  27124      1    156    154       26.79          0.1815E+06
  27125      1    156    155       26.73          0.1815E+06
  27126      1    156    156       28.76          0.1815E+06
  27127      1    156    157       32.45          0.1815E+06
  27128      1    156    158       34.20          0.1815E+06
  27129      1    156    159       33.84          0.1815E+06
  27130      1    156    160       32.88          0.1815E+06
  27131      1    156    161       31.27          0.1815E+06
  27132      1    156    162       29.68          0.1815E+06
  27133      1    156    163       29.68          0.1815E+06
  27134      1    156    164       28.50          0.1815E+06
  27135      1    156    165       31.70          0.1815E+06
  27136      1    156    166       33.50          0.1815E+06
  27137      1    156    167       34.00          0.1815E+06
  27138      1    156    168       33.60          0.1815E+06
  27139      1    156    169       32.90          0.1815E+06
  27140      1    156    170       32.30          0.1815E+06
  27141      1    156    171       31.70          0.1815E+06
  27142      1    156    172       31.00          0.1815E+06
  27143      1    156    173       30.30          0.1815E+06
  27144      1    156    174       29.20          0.1815E+06
  27145      1    157      1      -13.09          0.1815E+06
  27146      1    157      2      -12.89          0.1815E+06
  27147      1    157      3      -12.89          0.1815E+06
  27148      1    157      4      -13.01          0.1815E+06
  27149      1    157      5      -13.60          0.1815E+06
  27150      1    157      6      -13.50          0.1815E+06
  27151      1    157      7      -11.80          0.1815E+06
  27152      1    157      8      -12.39          0.1815E+06
  27153      1    157      9      -12.39          0.1815E+06
  27154      1    157     10      -13.40          0.1815E+06
  27155      1    157     11      -13.10          0.1815E+06
  27156      1    157     12      -13.90          0.1815E+06
  27157      1    157     13      -14.50          0.1815E+06
  27158      1    157     14      -14.52          0.1815E+06
  27159      1    157     15      -14.52          0.1815E+06
  27160      1    157     16      -14.11          0.1815E+06
  27161      1    157     17      -13.91          0.1815E+06
  27162      1    157     18      -13.81          0.1815E+06
  27163      1    157     19      -13.71          0.1815E+06
  27164      1    157     20      -13.01          0.1815E+06
  27165      1    157     21      -13.01          0.1815E+06
  27166      1    157     22      -12.91          0.1815E+06
  27167      1    157     23      -11.51          0.1815E+06
  27168      1    157     24      -11.11          0.1815E+06
  27169      1    157     25      -10.86          0.1815E+06
  27170      1    157     26      -10.86          0.1815E+06
  27171      1    157     27      -10.67          0.1815E+06
  27172      1    157     28      -10.52          0.1815E+06
  27173      1    157     29      -10.22          0.1815E+06
  27174      1    157     30      -10.12          0.1815E+06
  27175      1    157     31      -9.470          0.1815E+06
  27176      1    157     32      -9.470          0.1815E+06
  27177      1    157     33      -9.620          0.1815E+06
  27178      1    157     34      -8.220          0.1815E+06
  27179      1    157     35      -6.710          0.1815E+06
  27180      1    157     36      -6.560          0.1815E+06
  27181      1    157     37      -7.410          0.1815E+06
  27182      1    157     38      -7.410          0.1815E+06
  27183      1    157     39      -5.810          0.1815E+06
  27184      1    157     40      -6.610          0.1815E+06
  27185      1    157     41      -5.510          0.1815E+06
  27186      1    157     42      -5.110          0.1815E+06
  27187      1    157     43      -4.410          0.1815E+06
  27188      1    157     44      -4.410          0.1815E+06
  27189      1    157     45      -5.100          0.1815E+06
  27190      1    157     46      -4.800          0.1815E+06
  27191      1    157     47      -4.840          0.1815E+06
  27192      1    157     48      -4.800          0.1815E+06
  27193      1    157     49      -4.800          0.1815E+06
  27194      1    157     50      -5.200          0.1815E+06
  27195      1    157     51      -4.320          0.1815E+06
  27196      1    157     52      -3.300          0.1815E+06
  27197      1    157     53      -3.900          0.1815E+06
  27198      1    157     54      -4.320          0.1815E+06
  27199      1    157     55      -4.320          0.1815E+06
  27200      1    157     56      -3.470          0.1815E+06
  27201      1    157     57     -0.6200          0.1815E+06
  27202      1    157     58      0.5800          0.1815E+06
  27203      1    157     59       3.590          0.1815E+06
  27204      1    157     60       7.100          0.1815E+06
  27205      1    157     61       7.100          0.1815E+06
  27206      1    157     62       9.770          0.1815E+06
  27207      1    157     63       8.670          0.1815E+06
  27208      1    157     64       8.570          0.1815E+06
  27209      1    157     65       11.44          0.1815E+06
  27210      1    157     66       10.03          0.1815E+06
  27211      1    157     67       10.21          0.1815E+06
  27212      1    157     68       10.81          0.1815E+06
  27213      1    157     69       9.890          0.1815E+06
  27214      1    157     70       10.05          0.1815E+06
  27215      1    157     71       10.05          0.1815E+06
  27216      1    157     72       10.27          0.1815E+06
  27217      1    157     73       10.18          0.1815E+06
  27218      1    157     74       10.44          0.1815E+06
  27219      1    157     75       10.40          0.1815E+06
  27220      1    157     76       10.23          0.1815E+06
  27221      1    157     77       10.25          0.1815E+06
  27222      1    157     78       10.44          0.1815E+06
  27223      1    157     79       11.14          0.1815E+06
  27224      1    157     80       10.48          0.1815E+06
  27225      1    157     81       10.71          0.1815E+06
  27226      1    157     82       9.800          0.1815E+06
  27227      1    157     83       10.48          0.1815E+06
  27228      1    157     84       10.05          0.1815E+06
  27229      1    157     85       9.920          0.1815E+06
  27230      1    157     86       9.880          0.1815E+06
  27231      1    157     87       10.03          0.1815E+06
  27232      1    157     88       9.250          0.1815E+06
  27233      1    157     89       9.300          0.1815E+06
  27234      1    157     90       8.880          0.1815E+06
  27235      1    157     91       8.710          0.1815E+06
  27236      1    157     92       8.220          0.1815E+06
  27237      1    157     93       8.940          0.1815E+06
  27238      1    157     94       7.880          0.1815E+06
  27239      1    157     95       7.280          0.1815E+06
  27240      1    157     96       6.210          0.1815E+06
  27241      1    157     97       6.130          0.1815E+06
  27242      1    157     98       7.400          0.1815E+06
  27243      1    157     99       7.150          0.1815E+06
  27244      1    157    100       7.900          0.1815E+06
  27245      1    157    101       8.570          0.1815E+06
  27246      1    157    102       8.970          0.1815E+06
  27247      1    157    103       10.75          0.1815E+06
  27248      1    157    104       11.75          0.1815E+06
  27249      1    157    105       12.30          0.1815E+06
  27250      1    157    106       12.73          0.1815E+06
  27251      1    157    107       13.03          0.1815E+06
  27252      1    157    108       13.22          0.1815E+06
  27253      1    157    109       13.75          0.1815E+06
  27254      1    157    110       14.00          0.1815E+06
  27255      1    157    111       14.35          0.1815E+06
  27256      1    157    112       14.56          0.1815E+06
  27257      1    157    113       14.27          0.1815E+06
  27258      1    157    114       13.85          0.1815E+06
  27259      1    157    115       13.03          0.1815E+06
  27260      1    157    116       9.900          0.1815E+06
  27261      1    157    117       7.010          0.1815E+06
  27262      1    157    118       6.670          0.1815E+06
  27263      1    157    119       7.150          0.1815E+06
  27264      1    157    120       11.11          0.1815E+06
  27265      1    157    121       14.31          0.1815E+06
  27266      1    157    122       14.21          0.1815E+06
  27267      1    157    123       14.27          0.1815E+06
  27268      1    157    124       16.55          0.1815E+06
  27269      1    157    125       15.72          0.1815E+06
  27270      1    157    126       13.80          0.1815E+06
  27271      1    157    127       9.220          0.1815E+06
  27272      1    157    128       5.820          0.1815E+06
  27273      1    157    129       5.940          0.1815E+06
  27274      1    157    130       6.340          0.1815E+06
  27275      1    157    131       7.420          0.1815E+06
  27276      1    157    132       7.800          0.1815E+06
  27277      1    157    133       8.210          0.1815E+06
  27278      1    157    134       8.640          0.1815E+06
  27279      1    157    135       8.390          0.1815E+06
  27280      1    157    136       8.720          0.1815E+06
  27281      1    157    137       8.780          0.1815E+06
  27282      1    157    138       9.650          0.1815E+06
  27283      1    157    139       12.21          0.1815E+06
  27284      1    157    140       15.52          0.1815E+06
  27285      1    157    141       18.79          0.1815E+06
  27286      1    157    142       20.86          0.1815E+06
  27287      1    157    143       22.95          0.1815E+06
  27288      1    157    144       23.69          0.1815E+06
  27289      1    157    145       23.25          0.1815E+06
  27290      1    157    146       23.29          0.1815E+06
  27291      1    157    147       23.43          0.1815E+06
  27292      1    157    148       23.57          0.1815E+06
  27293      1    157    149       24.18          0.1815E+06
  27294      1    157    150       24.76          0.1815E+06
  27295      1    157    151       25.00          0.1815E+06
  27296      1    157    152       24.86          0.1815E+06
  27297      1    157    153       24.22          0.1815E+06
  27298      1    157    154       24.38          0.1815E+06
  27299      1    157    155       25.00          0.1815E+06
  27300      1    157    156       29.14          0.1815E+06
  27301      1    157    157       32.18          0.1815E+06
  27302      1    157    158       34.36          0.1815E+06
  27303      1    157    159       34.38          0.1815E+06
  27304      1    157    160       33.31          0.1815E+06
  27305      1    157    161       31.85          0.1815E+06
  27306      1    157    162       30.04          0.1815E+06
  27307      1    157    163       28.71          0.1815E+06
  27308      1    157    164       27.86          0.1815E+06
  27309      1    157    165       30.43          0.1815E+06
  27310      1    157    166       32.59          0.1815E+06
  27311      1    157    167       33.10          0.1815E+06
  27312      1    157    168       32.80          0.1815E+06
  27313      1    157    169       32.40          0.1815E+06
  27314      1    157    170       31.90          0.1815E+06
  27315      1    157    171       31.10          0.1815E+06
  27316      1    157    172       30.20          0.1815E+06
  27317      1    157    173       29.90          0.1815E+06
  27318      1    157    174       27.40          0.1815E+06
  27319      1    158      1      -13.09          0.1815E+06
  27320      1    158      2      -12.89          0.1815E+06
  27321      1    158      3      -12.89          0.1815E+06
  27322      1    158      4      -13.01          0.1815E+06
  27323      1    158      5      -13.60          0.1815E+06
  27324      1    158      6      -13.50          0.1815E+06
  27325      1    158      7      -11.80          0.1815E+06
  27326      1    158      8      -12.39          0.1815E+06
  27327      1    158      9      -12.39          0.1815E+06
  27328      1    158     10      -13.40          0.1815E+06
  27329      1    158     11      -13.10          0.1815E+06
  27330      1    158     12      -13.90          0.1815E+06
  27331      1    158     13      -14.50          0.1815E+06
  27332      1    158     14      -14.52          0.1815E+06
  27333      1    158     15      -14.52          0.1815E+06
  27334      1    158     16      -14.11          0.1815E+06
  27335      1    158     17      -13.91          0.1815E+06
  27336      1    158     18      -13.81          0.1815E+06
  27337      1    158     19      -13.71          0.1815E+06
  27338      1    158     20      -13.01          0.1815E+06
  27339      1    158     21      -13.01          0.1815E+06
  27340      1    158     22      -12.91          0.1815E+06
  27341      1    158     23      -11.51          0.1815E+06
  27342      1    158     24      -11.11          0.1815E+06
  27343      1    158     25      -10.86          0.1815E+06
  27344      1    158     26      -10.86          0.1815E+06
  27345      1    158     27      -10.67          0.1815E+06
  27346      1    158     28      -10.52          0.1815E+06
  27347      1    158     29      -10.22          0.1815E+06
  27348      1    158     30      -10.12          0.1815E+06
  27349      1    158     31      -9.470          0.1815E+06
  27350      1    158     32      -9.470          0.1815E+06
  27351      1    158     33      -9.620          0.1815E+06
  27352      1    158     34      -8.220          0.1815E+06
  27353      1    158     35      -6.710          0.1815E+06
  27354      1    158     36      -6.560          0.1815E+06
  27355      1    158     37      -7.410          0.1815E+06
  27356      1    158     38      -7.410          0.1815E+06
  27357      1    158     39      -5.810          0.1815E+06
  27358      1    158     40      -6.610          0.1815E+06
  27359      1    158     41      -5.510          0.1815E+06
  27360      1    158     42      -5.110          0.1815E+06
  27361      1    158     43      -4.410          0.1815E+06
  27362      1    158     44      -4.410          0.1815E+06
  27363      1    158     45      -5.100          0.1815E+06
  27364      1    158     46      -4.800          0.1815E+06
  27365      1    158     47      -4.840          0.1815E+06
  27366      1    158     48      -4.800          0.1815E+06
  27367      1    158     49      -4.800          0.1815E+06
  27368      1    158     50      -5.200          0.1815E+06
  27369      1    158     51      -4.320          0.1815E+06
  27370      1    158     52      -3.300          0.1815E+06
  27371      1    158     53      -3.900          0.1815E+06
  27372      1    158     54      -4.320          0.1815E+06
  27373      1    158     55      -4.320          0.1815E+06
  27374      1    158     56      -3.470          0.1815E+06
  27375      1    158     57     -0.6200          0.1815E+06
  27376      1    158     58      0.5800          0.1815E+06
  27377      1    158     59       3.590          0.1815E+06
  27378      1    158     60       7.100          0.1815E+06
  27379      1    158     61       7.100          0.1815E+06
  27380      1    158     62       12.02          0.1815E+06
  27381      1    158     63       8.600          0.1815E+06
  27382      1    158     64       8.970          0.1815E+06
  27383      1    158     65       10.02          0.1815E+06
  27384      1    158     66       8.970          0.1815E+06
  27385      1    158     67       9.890          0.1815E+06
  27386      1    158     68       9.390          0.1815E+06
  27387      1    158     69       12.42          0.1815E+06
  27388      1    158     70       10.43          0.1815E+06
  27389      1    158     71       9.980          0.1815E+06
  27390      1    158     72       9.970          0.1815E+06
  27391      1    158     73       9.970          0.1815E+06
  27392      1    158     74       10.44          0.1815E+06
  27393      1    158     75       10.10          0.1815E+06
  27394      1    158     76       10.18          0.1815E+06
  27395      1    158     77       10.26          0.1815E+06
  27396      1    158     78       10.32          0.1815E+06
  27397      1    158     79       10.64          0.1815E+06
  27398      1    158     80       10.23          0.1815E+06
  27399      1    158     81       10.22          0.1815E+06
  27400      1    158     82       10.52          0.1815E+06
  27401      1    158     83       10.35          0.1815E+06
  27402      1    158     84       10.17          0.1815E+06
  27403      1    158     85       10.06          0.1815E+06
  27404      1    158     86       9.940          0.1815E+06
  27405      1    158     87       10.10          0.1815E+06
  27406      1    158     88       9.430          0.1815E+06
  27407      1    158     89       9.750          0.1815E+06
  27408      1    158     90       9.020          0.1815E+06
  27409      1    158     91       8.760          0.1815E+06
  27410      1    158     92       8.390          0.1815E+06
  27411      1    158     93       8.060          0.1815E+06
  27412      1    158     94       7.460          0.1815E+06
  27413      1    158     95       5.690          0.1815E+06
  27414      1    158     96       6.210          0.1815E+06
  27415      1    158     97       7.170          0.1815E+06
  27416      1    158     98       7.150          0.1815E+06
  27417      1    158     99       10.50          0.1815E+06
  27418      1    158    100       10.32          0.1815E+06
  27419      1    158    101       11.06          0.1815E+06
  27420      1    158    102       11.89          0.1815E+06
  27421      1    158    103       12.31          0.1815E+06
  27422      1    158    104       12.64          0.1815E+06
  27423      1    158    105       12.69          0.1815E+06
  27424      1    158    106       12.81          0.1815E+06
  27425      1    158    107       12.89          0.1815E+06
  27426      1    158    108       13.32          0.1815E+06
  27427      1    158    109       13.57          0.1815E+06
  27428      1    158    110       13.63          0.1815E+06
  27429      1    158    111       13.47          0.1815E+06
  27430      1    158    112       13.09          0.1815E+06
  27431      1    158    113       13.14          0.1815E+06
  27432      1    158    114       11.97          0.1815E+06
  27433      1    158    115       10.02          0.1815E+06
  27434      1    158    116       7.980          0.1815E+06
  27435      1    158    117       7.360          0.1815E+06
  27436      1    158    118       7.320          0.1815E+06
  27437      1    158    119       6.570          0.1815E+06
  27438      1    158    120       7.690          0.1815E+06
  27439      1    158    121       11.10          0.1815E+06
  27440      1    158    122       15.31          0.1815E+06
  27441      1    158    123       15.72          0.1815E+06
  27442      1    158    124       16.09          0.1815E+06
  27443      1    158    125       13.34          0.1815E+06
  27444      1    158    126       11.11          0.1815E+06
  27445      1    158    127       6.500          0.1815E+06
  27446      1    158    128       6.090          0.1815E+06
  27447      1    158    129       6.170          0.1815E+06
  27448      1    158    130       7.880          0.1815E+06
  27449      1    158    131       8.770          0.1815E+06
  27450      1    158    132       9.800          0.1815E+06
  27451      1    158    133       8.970          0.1815E+06
  27452      1    158    134       10.13          0.1815E+06
  27453      1    158    135       11.39          0.1815E+06
  27454      1    158    136       11.67          0.1815E+06
  27455      1    158    137       12.34          0.1815E+06
  27456      1    158    138       12.42          0.1815E+06
  27457      1    158    139       13.18          0.1815E+06
  27458      1    158    140       15.85          0.1815E+06
  27459      1    158    141       18.80          0.1815E+06
  27460      1    158    142       21.07          0.1815E+06
  27461      1    158    143       22.55          0.1815E+06
  27462      1    158    144       23.92          0.1815E+06
  27463      1    158    145       24.62          0.1815E+06
  27464      1    158    146       24.20          0.1815E+06
  27465      1    158    147       23.56          0.1815E+06
  27466      1    158    148       23.57          0.1815E+06
  27467      1    158    149       23.82          0.1815E+06
  27468      1    158    150       24.19          0.1815E+06
  27469      1    158    151       23.85          0.1815E+06
  27470      1    158    152       23.25          0.1815E+06
  27471      1    158    153       22.57          0.1815E+06
  27472      1    158    154       22.76          0.1815E+06
  27473      1    158    155       23.69          0.1815E+06
  27474      1    158    156       27.51          0.1815E+06
  27475      1    158    157       31.60          0.1815E+06
  27476      1    158    158       34.09          0.1815E+06
  27477      1    158    159       34.86          0.1815E+06
  27478      1    158    160       33.15          0.1815E+06
  27479      1    158    161       31.50          0.1815E+06
  27480      1    158    162       30.14          0.1815E+06
  27481      1    158    163       27.62          0.1815E+06
  27482      1    158    164       25.36          0.1815E+06
  27483      1    158    165       28.81          0.1815E+06
  27484      1    158    166       31.01          0.1815E+06
  27485      1    158    167       32.01          0.1815E+06
  27486      1    158    168       32.07          0.1815E+06
  27487      1    158    169       31.80          0.1815E+06
  27488      1    158    170       31.30          0.1815E+06
  27489      1    158    171       30.50          0.1815E+06
  27490      1    158    172       30.00          0.1815E+06
  27491      1    158    173       29.30          0.1815E+06
  27492      1    158    174       24.70          0.1815E+06
  27493      1    159      1      -12.49          0.1815E+06
  27494      1    159      2      -12.80          0.1815E+06
  27495      1    159      3      -12.80          0.1815E+06
  27496      1    159      4      -13.00          0.1815E+06
  27497      1    159      5      -13.30          0.1815E+06
  27498      1    159      6      -13.50          0.1815E+06
  27499      1    159      7      -11.80          0.1815E+06
  27500      1    159      8      -12.39          0.1815E+06
  27501      1    159      9      -12.39          0.1815E+06
  27502      1    159     10      -13.40          0.1815E+06
  27503      1    159     11      -12.80          0.1815E+06
  27504      1    159     12      -13.66          0.1815E+06
  27505      1    159     13      -14.11          0.1815E+06
  27506      1    159     14      -14.11          0.1815E+06
  27507      1    159     15      -14.11          0.1815E+06
  27508      1    159     16      -14.21          0.1815E+06
  27509      1    159     17      -13.91          0.1815E+06
  27510      1    159     18      -13.31          0.1815E+06
  27511      1    159     19      -13.21          0.1815E+06
  27512      1    159     20      -12.41          0.1815E+06
  27513      1    159     21      -12.41          0.1815E+06
  27514      1    159     22      -11.81          0.1815E+06
  27515      1    159     23      -9.720          0.1815E+06
  27516      1    159     24      -10.77          0.1815E+06
  27517      1    159     25      -11.02          0.1815E+06
  27518      1    159     26      -11.02          0.1815E+06
  27519      1    159     27      -10.27          0.1815E+06
  27520      1    159     28      -10.12          0.1815E+06
  27521      1    159     29      -10.52          0.1815E+06
  27522      1    159     30      -10.22          0.1815E+06
  27523      1    159     31      -9.470          0.1815E+06
  27524      1    159     32      -9.470          0.1815E+06
  27525      1    159     33      -9.620          0.1815E+06
  27526      1    159     34      -8.220          0.1815E+06
  27527      1    159     35      -6.710          0.1815E+06
  27528      1    159     36      -6.410          0.1815E+06
  27529      1    159     37      -7.660          0.1815E+06
  27530      1    159     38      -7.660          0.1815E+06
  27531      1    159     39      -7.410          0.1815E+06
  27532      1    159     40      -5.710          0.1815E+06
  27533      1    159     41      -4.910          0.1815E+06
  27534      1    159     42      -5.910          0.1815E+06
  27535      1    159     43      -6.110          0.1815E+06
  27536      1    159     44      -6.110          0.1815E+06
  27537      1    159     45      -4.840          0.1815E+06
  27538      1    159     46      -4.520          0.1815E+06
  27539      1    159     47      -4.610          0.1815E+06
  27540      1    159     48      -5.010          0.1815E+06
  27541      1    159     49      -5.010          0.1815E+06
  27542      1    159     50      -3.810          0.1815E+06
  27543      1    159     51      -4.000          0.1815E+06
  27544      1    159     52      -3.550          0.1815E+06
  27545      1    159     53      -4.200          0.1815E+06
  27546      1    159     54      -3.850          0.1815E+06
  27547      1    159     55      -3.850          0.1815E+06
  27548      1    159     56      -3.470          0.1815E+06
  27549      1    159     57     -0.6200          0.1815E+06
  27550      1    159     58      0.5800          0.1815E+06
  27551      1    159     59       3.590          0.1815E+06
  27552      1    159     60       5.590          0.1815E+06
  27553      1    159     61       5.590          0.1815E+06
  27554      1    159     62       8.590          0.1815E+06
  27555      1    159     63       8.280          0.1815E+06
  27556      1    159     64       7.860          0.1815E+06
  27557      1    159     65       8.320          0.1815E+06
  27558      1    159     66       8.800          0.1815E+06
  27559      1    159     67       8.980          0.1815E+06
  27560      1    159     68       9.470          0.1815E+06
  27561      1    159     69       11.25          0.1815E+06
  27562      1    159     70       10.43          0.1815E+06
  27563      1    159     71       9.550          0.1815E+06
  27564      1    159     72       9.560          0.1815E+06
  27565      1    159     73       9.680          0.1815E+06
  27566      1    159     74       10.14          0.1815E+06
  27567      1    159     75       10.06          0.1815E+06
  27568      1    159     76       9.520          0.1815E+06
  27569      1    159     77       10.22          0.1815E+06
  27570      1    159     78       10.22          0.1815E+06
  27571      1    159     79       10.31          0.1815E+06
  27572      1    159     80       11.27          0.1815E+06
  27573      1    159     81       9.980          0.1815E+06
  27574      1    159     82       10.03          0.1815E+06
  27575      1    159     83       10.35          0.1815E+06
  27576      1    159     84       10.25          0.1815E+06
  27577      1    159     85       10.10          0.1815E+06
  27578      1    159     86       9.640          0.1815E+06
  27579      1    159     87       10.42          0.1815E+06
  27580      1    159     88       9.810          0.1815E+06
  27581      1    159     89       9.750          0.1815E+06
  27582      1    159     90       8.610          0.1815E+06
  27583      1    159     91       9.400          0.1815E+06
  27584      1    159     92       7.880          0.1815E+06
  27585      1    159     93       7.760          0.1815E+06
  27586      1    159     94       8.070          0.1815E+06
  27587      1    159     95       7.360          0.1815E+06
  27588      1    159     96       6.720          0.1815E+06
  27589      1    159     97       5.720          0.1815E+06
  27590      1    159     98       7.720          0.1815E+06
  27591      1    159     99       11.02          0.1815E+06
  27592      1    159    100       12.42          0.1815E+06
  27593      1    159    101       11.47          0.1815E+06
  27594      1    159    102       11.89          0.1815E+06
  27595      1    159    103       12.07          0.1815E+06
  27596      1    159    104       12.10          0.1815E+06
  27597      1    159    105       12.21          0.1815E+06
  27598      1    159    106       12.47          0.1815E+06
  27599      1    159    107       12.47          0.1815E+06
  27600      1    159    108       12.90          0.1815E+06
  27601      1    159    109       13.10          0.1815E+06
  27602      1    159    110       12.96          0.1815E+06
  27603      1    159    111       12.51          0.1815E+06
  27604      1    159    112       8.820          0.1815E+06
  27605      1    159    113       9.140          0.1815E+06
  27606      1    159    114       7.820          0.1815E+06
  27607      1    159    115       7.820          0.1815E+06
  27608      1    159    116       7.710          0.1815E+06
  27609      1    159    117       7.300          0.1815E+06
  27610      1    159    118       6.670          0.1815E+06
  27611      1    159    119       6.980          0.1815E+06
  27612      1    159    120       7.480          0.1815E+06
  27613      1    159    121       7.360          0.1815E+06
  27614      1    159    122       6.730          0.1815E+06
  27615      1    159    123       14.10          0.1815E+06
  27616      1    159    124       13.32          0.1815E+06
  27617      1    159    125       10.76          0.1815E+06
  27618      1    159    126       5.960          0.1815E+06
  27619      1    159    127       8.530          0.1815E+06
  27620      1    159    128       10.51          0.1815E+06
  27621      1    159    129       9.840          0.1815E+06
  27622      1    159    130       10.88          0.1815E+06
  27623      1    159    131       10.78          0.1815E+06
  27624      1    159    132       12.09          0.1815E+06
  27625      1    159    133       11.31          0.1815E+06
  27626      1    159    134       11.11          0.1815E+06
  27627      1    159    135       13.00          0.1815E+06
  27628      1    159    136       13.18          0.1815E+06
  27629      1    159    137       13.68          0.1815E+06
  27630      1    159    138       14.51          0.1815E+06
  27631      1    159    139       13.75          0.1815E+06
  27632      1    159    140       14.07          0.1815E+06
  27633      1    159    141       17.97          0.1815E+06
  27634      1    159    142       20.85          0.1815E+06
  27635      1    159    143       23.02          0.1815E+06
  27636      1    159    144       24.22          0.1815E+06
  27637      1    159    145       24.40          0.1815E+06
  27638      1    159    146       24.11          0.1815E+06
  27639      1    159    147       23.80          0.1815E+06
  27640      1    159    148       23.39          0.1815E+06
  27641      1    159    149       23.35          0.1815E+06
  27642      1    159    150       23.06          0.1815E+06
  27643      1    159    151       22.80          0.1815E+06
  27644      1    159    152       22.60          0.1815E+06
  27645      1    159    153       21.30          0.1815E+06
  27646      1    159    154       21.95          0.1815E+06
  27647      1    159    155       23.63          0.1815E+06
  27648      1    159    156       27.90          0.1815E+06
  27649      1    159    157       31.62          0.1815E+06
  27650      1    159    158       33.56          0.1815E+06
  27651      1    159    159       34.70          0.1815E+06
  27652      1    159    160       33.41          0.1815E+06
  27653      1    159    161       31.56          0.1815E+06
  27654      1    159    162       29.45          0.1815E+06
  27655      1    159    163       27.10          0.1815E+06
  27656      1    159    164       24.04          0.1815E+06
  27657      1    159    165       28.12          0.1815E+06
  27658      1    159    166       29.52          0.1815E+06
  27659      1    159    167       30.82          0.1815E+06
  27660      1    159    168       30.90          0.1815E+06
  27661      1    159    169       31.04          0.1815E+06
  27662      1    159    170       30.55          0.1815E+06
  27663      1    159    171       29.50          0.1815E+06
  27664      1    159    172       28.40          0.1815E+06
  27665      1    159    173       28.40          0.1815E+06
  27666      1    159    174       25.40          0.1815E+06
  27667      1    160      1      -12.90          0.1815E+06
  27668      1    160      2      -12.80          0.1815E+06
  27669      1    160      3      -12.80          0.1815E+06
  27670      1    160      4      -13.00          0.1815E+06
  27671      1    160      5      -13.30          0.1815E+06
  27672      1    160      6      -12.80          0.1815E+06
  27673      1    160      7      -12.70          0.1815E+06
  27674      1    160      8      -13.40          0.1815E+06
  27675      1    160      9      -13.40          0.1815E+06
  27676      1    160     10      -12.01          0.1815E+06
  27677      1    160     11      -13.01          0.1815E+06
  27678      1    160     12      -14.01          0.1815E+06
  27679      1    160     13      -14.06          0.1815E+06
  27680      1    160     14      -14.01          0.1815E+06
  27681      1    160     15      -14.01          0.1815E+06
  27682      1    160     16      -13.81          0.1815E+06
  27683      1    160     17      -13.71          0.1815E+06
  27684      1    160     18      -13.51          0.1815E+06
  27685      1    160     19      -13.21          0.1815E+06
  27686      1    160     20      -12.65          0.1815E+06
  27687      1    160     21      -12.65          0.1815E+06
  27688      1    160     22      -12.24          0.1815E+06
  27689      1    160     23      -11.60          0.1815E+06
  27690      1    160     24      -11.07          0.1815E+06
  27691      1    160     25      -12.02          0.1815E+06
  27692      1    160     26      -12.02          0.1815E+06
  27693      1    160     27      -10.27          0.1815E+06
  27694      1    160     28      -10.12          0.1815E+06
  27695      1    160     29      -10.52          0.1815E+06
  27696      1    160     30      -10.22          0.1815E+06
  27697      1    160     31      -8.920          0.1815E+06
  27698      1    160     32      -8.920          0.1815E+06
  27699      1    160     33      -11.22          0.1815E+06
  27700      1    160     34      -8.520          0.1815E+06
  27701      1    160     35      -8.580          0.1815E+06
  27702      1    160     36      -8.610          0.1815E+06
  27703      1    160     37      -8.210          0.1815E+06
  27704      1    160     38      -8.210          0.1815E+06
  27705      1    160     39      -6.710          0.1815E+06
  27706      1    160     40      -6.110          0.1815E+06
  27707      1    160     41      -6.310          0.1815E+06
  27708      1    160     42      -5.910          0.1815E+06
  27709      1    160     43      -4.960          0.1815E+06
  27710      1    160     44      -4.960          0.1815E+06
  27711      1    160     45      -4.110          0.1815E+06
  27712      1    160     46      -4.010          0.1815E+06
  27713      1    160     47      -4.040          0.1815E+06
  27714      1    160     48      -4.400          0.1815E+06
  27715      1    160     49      -4.400          0.1815E+06
  27716      1    160     50      -4.110          0.1815E+06
  27717      1    160     51      -4.000          0.1815E+06
  27718      1    160     52      -3.550          0.1815E+06
  27719      1    160     53      -4.200          0.1815E+06
  27720      1    160     54      -3.850          0.1815E+06
  27721      1    160     55      -3.850          0.1815E+06
  27722      1    160     56      -2.790          0.1815E+06
  27723      1    160     57     -0.8300          0.1815E+06
  27724      1    160     58      0.5800          0.1815E+06
  27725      1    160     59       1.590          0.1815E+06
  27726      1    160     60       3.590          0.1815E+06
  27727      1    160     61       3.590          0.1815E+06
  27728      1    160     62       6.610          0.1815E+06
  27729      1    160     63       7.500          0.1815E+06
  27730      1    160     64       8.460          0.1815E+06
  27731      1    160     65       7.730          0.1815E+06
  27732      1    160     66       8.140          0.1815E+06
  27733      1    160     67       8.680          0.1815E+06
  27734      1    160     68       10.57          0.1815E+06
  27735      1    160     69       10.15          0.1815E+06
  27736      1    160     70       10.10          0.1815E+06
  27737      1    160     71       10.03          0.1815E+06
  27738      1    160     72       9.310          0.1815E+06
  27739      1    160     73       9.560          0.1815E+06
  27740      1    160     74       9.640          0.1815E+06
  27741      1    160     75       9.920          0.1815E+06
  27742      1    160     76       10.69          0.1815E+06
  27743      1    160     77       10.00          0.1815E+06
  27744      1    160     78       10.52          0.1815E+06
  27745      1    160     79       10.17          0.1815E+06
  27746      1    160     80       10.47          0.1815E+06
  27747      1    160     81       10.36          0.1815E+06
  27748      1    160     82       9.850          0.1815E+06
  27749      1    160     83       9.930          0.1815E+06
  27750      1    160     84       11.10          0.1815E+06
  27751      1    160     85       9.430          0.1815E+06
  27752      1    160     86       9.670          0.1815E+06
  27753      1    160     87       9.270          0.1815E+06
  27754      1    160     88       9.170          0.1815E+06
  27755      1    160     89       8.760          0.1815E+06
  27756      1    160     90       8.770          0.1815E+06
  27757      1    160     91       8.970          0.1815E+06
  27758      1    160     92       7.880          0.1815E+06
  27759      1    160     93       7.380          0.1815E+06
  27760      1    160     94       7.300          0.1815E+06
  27761      1    160     95       6.030          0.1815E+06
  27762      1    160     96       6.710          0.1815E+06
  27763      1    160     97       5.720          0.1815E+06
  27764      1    160     98       5.720          0.1815E+06
  27765      1    160     99       7.730          0.1815E+06
  27766      1    160    100       11.72          0.1815E+06
  27767      1    160    101       11.18          0.1815E+06
  27768      1    160    102       11.64          0.1815E+06
  27769      1    160    103       12.06          0.1815E+06
  27770      1    160    104       11.86          0.1815E+06
  27771      1    160    105       12.11          0.1815E+06
  27772      1    160    106       12.35          0.1815E+06
  27773      1    160    107       12.38          0.1815E+06
  27774      1    160    108       12.78          0.1815E+06
  27775      1    160    109       12.81          0.1815E+06
  27776      1    160    110       9.400          0.1815E+06
  27777      1    160    111       7.630          0.1815E+06
  27778      1    160    112       7.570          0.1815E+06
  27779      1    160    113       7.900          0.1815E+06
  27780      1    160    114       6.710          0.1815E+06
  27781      1    160    115       7.960          0.1815E+06
  27782      1    160    116       7.550          0.1815E+06
  27783      1    160    117       7.530          0.1815E+06
  27784      1    160    118       8.020          0.1815E+06
  27785      1    160    119       6.530          0.1815E+06
  27786      1    160    120       7.260          0.1815E+06
  27787      1    160    121       6.940          0.1815E+06
  27788      1    160    122       8.220          0.1815E+06
  27789      1    160    123       7.960          0.1815E+06
  27790      1    160    124       8.110          0.1815E+06
  27791      1    160    125       6.110          0.1815E+06
  27792      1    160    126       7.360          0.1815E+06
  27793      1    160    127       12.14          0.1815E+06
  27794      1    160    128       13.28          0.1815E+06
  27795      1    160    129       13.71          0.1815E+06
  27796      1    160    130       12.93          0.1815E+06
  27797      1    160    131       11.93          0.1815E+06
  27798      1    160    132       13.02          0.1815E+06
  27799      1    160    133       13.28          0.1815E+06
  27800      1    160    134       13.11          0.1815E+06
  27801      1    160    135       13.32          0.1815E+06
  27802      1    160    136       13.34          0.1815E+06
  27803      1    160    137       13.73          0.1815E+06
  27804      1    160    138       13.96          0.1815E+06
  27805      1    160    139       15.96          0.1815E+06
  27806      1    160    140       16.87          0.1815E+06
  27807      1    160    141       18.75          0.1815E+06
  27808      1    160    142       21.13          0.1815E+06
  27809      1    160    143       23.35          0.1815E+06
  27810      1    160    144       23.63          0.1815E+06
  27811      1    160    145       23.28          0.1815E+06
  27812      1    160    146       23.12          0.1815E+06
  27813      1    160    147       22.87          0.1815E+06
  27814      1    160    148       22.29          0.1815E+06
  27815      1    160    149       22.12          0.1815E+06
  27816      1    160    150       22.03          0.1815E+06
  27817      1    160    151       22.61          0.1815E+06
  27818      1    160    152       21.69          0.1815E+06
  27819      1    160    153       20.22          0.1815E+06
  27820      1    160    154       21.45          0.1815E+06
  27821      1    160    155       24.59          0.1815E+06
  27822      1    160    156       27.81          0.1815E+06
  27823      1    160    157       31.20          0.1815E+06
  27824      1    160    158       32.52          0.1815E+06
  27825      1    160    159       33.68          0.1815E+06
  27826      1    160    160       33.02          0.1815E+06
  27827      1    160    161       31.76          0.1815E+06
  27828      1    160    162       29.77          0.1815E+06
  27829      1    160    163       27.70          0.1815E+06
  27830      1    160    164       23.55          0.1815E+06
  27831      1    160    165       26.31          0.1815E+06
  27832      1    160    166       27.32          0.1815E+06
  27833      1    160    167       27.77          0.1815E+06
  27834      1    160    168       28.85          0.1815E+06
  27835      1    160    169       29.95          0.1815E+06
  27836      1    160    170       28.46          0.1815E+06
  27837      1    160    171       27.63          0.1815E+06
  27838      1    160    172       25.48          0.1815E+06
  27839      1    160    173       25.80          0.1815E+06
  27840      1    160    174       24.20          0.1815E+06
  27841      1    161      1      -12.90          0.1815E+06
  27842      1    161      2      -12.90          0.1815E+06
  27843      1    161      3      -12.90          0.1815E+06
  27844      1    161      4      -12.90          0.1815E+06
  27845      1    161      5      -12.00          0.1815E+06
  27846      1    161      6      -12.00          0.1815E+06
  27847      1    161      7      -12.00          0.1815E+06
  27848      1    161      8      -10.91          0.1815E+06
  27849      1    161      9      -10.91          0.1815E+06
  27850      1    161     10      -11.41          0.1815E+06
  27851      1    161     11      -12.21          0.1815E+06
  27852      1    161     12      -13.86          0.1815E+06
  27853      1    161     13      -13.41          0.1815E+06
  27854      1    161     14      -13.96          0.1815E+06
  27855      1    161     15      -13.96          0.1815E+06
  27856      1    161     16      -14.01          0.1815E+06
  27857      1    161     17      -13.31          0.1815E+06
  27858      1    161     18      -13.08          0.1815E+06
  27859      1    161     19      -12.46          0.1815E+06
  27860      1    161     20      -12.68          0.1815E+06
  27861      1    161     21      -12.68          0.1815E+06
  27862      1    161     22      -12.24          0.1815E+06
  27863      1    161     23      -11.60          0.1815E+06
  27864      1    161     24      -11.07          0.1815E+06
  27865      1    161     25      -12.02          0.1815E+06
  27866      1    161     26      -12.02          0.1815E+06
  27867      1    161     27      -11.72          0.1815E+06
  27868      1    161     28      -11.82          0.1815E+06
  27869      1    161     29      -11.27          0.1815E+06
  27870      1    161     30      -11.34          0.1815E+06
  27871      1    161     31      -11.32          0.1815E+06
  27872      1    161     32      -11.32          0.1815E+06
  27873      1    161     33      -11.32          0.1815E+06
  27874      1    161     34      -11.02          0.1815E+06
  27875      1    161     35      -10.42          0.1815E+06
  27876      1    161     36      -9.220          0.1815E+06
  27877      1    161     37      -6.220          0.1815E+06
  27878      1    161     38      -6.220          0.1815E+06
  27879      1    161     39      -5.720          0.1815E+06
  27880      1    161     40      -6.910          0.1815E+06
  27881      1    161     41      -6.520          0.1815E+06
  27882      1    161     42      -5.240          0.1815E+06
  27883      1    161     43      -4.510          0.1815E+06
  27884      1    161     44      -4.510          0.1815E+06
  27885      1    161     45      -4.910          0.1815E+06
  27886      1    161     46      -4.100          0.1815E+06
  27887      1    161     47      -4.040          0.1815E+06
  27888      1    161     48      -4.210          0.1815E+06
  27889      1    161     49      -4.210          0.1815E+06
  27890      1    161     50      -4.110          0.1815E+06
  27891      1    161     51      -4.010          0.1815E+06
  27892      1    161     52      -3.870          0.1815E+06
  27893      1    161     53      -3.730          0.1815E+06
  27894      1    161     54      -3.320          0.1815E+06
  27895      1    161     55      -3.320          0.1815E+06
  27896      1    161     56      -2.380          0.1815E+06
  27897      1    161     57     -0.9800          0.1815E+06
  27898      1    161     58      0.5900          0.1815E+06
  27899      1    161     59      0.5900          0.1815E+06
  27900      1    161     60       2.590          0.1815E+06
  27901      1    161     61       2.590          0.1815E+06
  27902      1    161     62       4.600          0.1815E+06
  27903      1    161     63       7.600          0.1815E+06
  27904      1    161     64       8.890          0.1815E+06
  27905      1    161     65       8.630          0.1815E+06
  27906      1    161     66       8.880          0.1815E+06
  27907      1    161     67       8.680          0.1815E+06
  27908      1    161     68       9.390          0.1815E+06
  27909      1    161     69       10.61          0.1815E+06
  27910      1    161     70       11.42          0.1815E+06
  27911      1    161     71       9.800          0.1815E+06
  27912      1    161     72       9.500          0.1815E+06
  27913      1    161     73       9.560          0.1815E+06
  27914      1    161     74       9.960          0.1815E+06
  27915      1    161     75       11.89          0.1815E+06
  27916      1    161     76       11.14          0.1815E+06
  27917      1    161     77       10.72          0.1815E+06
  27918      1    161     78       10.10          0.1815E+06
  27919      1    161     79       9.630          0.1815E+06
  27920      1    161     80       9.770          0.1815E+06
  27921      1    161     81       10.05          0.1815E+06
  27922      1    161     82       9.500          0.1815E+06
  27923      1    161     83       11.39          0.1815E+06
  27924      1    161     84       10.09          0.1815E+06
  27925      1    161     85       10.00          0.1815E+06
  27926      1    161     86       9.680          0.1815E+06
  27927      1    161     87       9.060          0.1815E+06
  27928      1    161     88       9.320          0.1815E+06
  27929      1    161     89       8.850          0.1815E+06
  27930      1    161     90       7.980          0.1815E+06
  27931      1    161     91       8.270          0.1815E+06
  27932      1    161     92       7.760          0.1815E+06
  27933      1    161     93       7.190          0.1815E+06
  27934      1    161     94       7.510          0.1815E+06
  27935      1    161     95       5.800          0.1815E+06
  27936      1    161     96       6.720          0.1815E+06
  27937      1    161     97       5.720          0.1815E+06
  27938      1    161     98       5.730          0.1815E+06
  27939      1    161     99       7.730          0.1815E+06
  27940      1    161    100       7.750          0.1815E+06
  27941      1    161    101       11.96          0.1815E+06
  27942      1    161    102       11.72          0.1815E+06
  27943      1    161    103       11.65          0.1815E+06
  27944      1    161    104       12.30          0.1815E+06
  27945      1    161    105       12.18          0.1815E+06
  27946      1    161    106       11.51          0.1815E+06
  27947      1    161    107       9.920          0.1815E+06
  27948      1    161    108       11.40          0.1815E+06
  27949      1    161    109       8.760          0.1815E+06
  27950      1    161    110       7.170          0.1815E+06
  27951      1    161    111       6.630          0.1815E+06
  27952      1    161    112       6.440          0.1815E+06
  27953      1    161    113       7.610          0.1815E+06
  27954      1    161    114       7.650          0.1815E+06
  27955      1    161    115       7.730          0.1815E+06
  27956      1    161    116       8.020          0.1815E+06
  27957      1    161    117       7.690          0.1815E+06
  27958      1    161    118       8.730          0.1815E+06
  27959      1    161    119       8.730          0.1815E+06
  27960      1    161    120       8.730          0.1815E+06
  27961      1    161    121       8.720          0.1815E+06
  27962      1    161    122       7.730          0.1815E+06
  27963      1    161    123       7.710          0.1815E+06
  27964      1    161    124       6.980          0.1815E+06
  27965      1    161    125       6.570          0.1815E+06
  27966      1    161    126       8.680          0.1815E+06
  27967      1    161    127       12.72          0.1815E+06
  27968      1    161    128       13.72          0.1815E+06
  27969      1    161    129       14.14          0.1815E+06
  27970      1    161    130       13.26          0.1815E+06
  27971      1    161    131       12.67          0.1815E+06
  27972      1    161    132       13.01          0.1815E+06
  27973      1    161    133       13.22          0.1815E+06
  27974      1    161    134       13.64          0.1815E+06
  27975      1    161    135       13.81          0.1815E+06
  27976      1    161    136       14.27          0.1815E+06
  27977      1    161    137       15.39          0.1815E+06
  27978      1    161    138       16.12          0.1815E+06
  27979      1    161    139       17.32          0.1815E+06
  27980      1    161    140       17.88          0.1815E+06
  27981      1    161    141       19.39          0.1815E+06
  27982      1    161    142       21.92          0.1815E+06
  27983      1    161    143       22.95          0.1815E+06
  27984      1    161    144       23.44          0.1815E+06
  27985      1    161    145       22.79          0.1815E+06
  27986      1    161    146       21.76          0.1815E+06
  27987      1    161    147       21.71          0.1815E+06
  27988      1    161    148       20.73          0.1815E+06
  27989      1    161    149       20.55          0.1815E+06
  27990      1    161    150       21.15          0.1815E+06
  27991      1    161    151       20.59          0.1815E+06
  27992      1    161    152       20.69          0.1815E+06
  27993      1    161    153       19.51          0.1815E+06
  27994      1    161    154       21.12          0.1815E+06
  27995      1    161    155       23.48          0.1815E+06
  27996      1    161    156       26.36          0.1815E+06
  27997      1    161    157       29.28          0.1815E+06
  27998      1    161    158       30.90          0.1815E+06
  27999      1    161    159       32.25          0.1815E+06
  28000      1    161    160       32.38          0.1815E+06
  28001      1    161    161       31.73          0.1815E+06
  28002      1    161    162       29.95          0.1815E+06
  28003      1    161    163       27.76          0.1815E+06
  28004      1    161    164       25.12          0.1815E+06
  28005      1    161    165       20.43          0.1815E+06
  28006      1    161    166       23.43          0.1815E+06
  28007      1    161    167       24.61          0.1815E+06
  28008      1    161    168       26.81          0.1815E+06
  28009      1    161    169       27.26          0.1815E+06
  28010      1    161    170       26.39          0.1815E+06
  28011      1    161    171       24.70          0.1815E+06
  28012      1    161    172       23.60          0.1815E+06
  28013      1    161    173       21.66          0.1815E+06
  28014      1    161    174       19.00          0.1815E+06
  28015      1    162      1      -14.30          0.1815E+06
  28016      1    162      2      -13.60          0.1815E+06
  28017      1    162      3      -13.60          0.1815E+06
  28018      1    162      4      -12.31          0.1815E+06
  28019      1    162      5      -12.21          0.1815E+06
  28020      1    162      6      -12.01          0.1815E+06
  28021      1    162      7      -12.31          0.1815E+06
  28022      1    162      8      -11.61          0.1815E+06
  28023      1    162      9      -11.61          0.1815E+06
  28024      1    162     10      -11.21          0.1815E+06
  28025      1    162     11      -11.01          0.1815E+06
  28026      1    162     12      -13.01          0.1815E+06
  28027      1    162     13      -13.61          0.1815E+06
  28028      1    162     14      -14.11          0.1815E+06
  28029      1    162     15      -14.11          0.1815E+06
  28030      1    162     16      -14.00          0.1815E+06
  28031      1    162     17      -13.31          0.1815E+06
  28032      1    162     18      -12.75          0.1815E+06
  28033      1    162     19      -12.46          0.1815E+06
  28034      1    162     20      -12.68          0.1815E+06
  28035      1    162     21      -12.68          0.1815E+06
  28036      1    162     22      -12.82          0.1815E+06
  28037      1    162     23      -12.42          0.1815E+06
  28038      1    162     24      -11.82          0.1815E+06
  28039      1    162     25      -13.32          0.1815E+06
  28040      1    162     26      -13.32          0.1815E+06
  28041      1    162     27      -13.22          0.1815E+06
  28042      1    162     28      -12.72          0.1815E+06
  28043      1    162     29      -12.30          0.1815E+06
  28044      1    162     30      -12.23          0.1815E+06
  28045      1    162     31      -11.63          0.1815E+06
  28046      1    162     32      -11.63          0.1815E+06
  28047      1    162     33      -12.72          0.1815E+06
  28048      1    162     34      -11.17          0.1815E+06
  28049      1    162     35      -10.62          0.1815E+06
  28050      1    162     36      -9.820          0.1815E+06
  28051      1    162     37      -7.520          0.1815E+06
  28052      1    162     38      -7.520          0.1815E+06
  28053      1    162     39      -4.720          0.1815E+06
  28054      1    162     40      -5.870          0.1815E+06
  28055      1    162     41      -6.220          0.1815E+06
  28056      1    162     42      -5.240          0.1815E+06
  28057      1    162     43      -4.510          0.1815E+06
  28058      1    162     44      -4.510          0.1815E+06
  28059      1    162     45      -4.910          0.1815E+06
  28060      1    162     46      -4.100          0.1815E+06
  28061      1    162     47      -3.610          0.1815E+06
  28062      1    162     48      -4.410          0.1815E+06
  28063      1    162     49      -4.410          0.1815E+06
  28064      1    162     50      -4.120          0.1815E+06
  28065      1    162     51      -3.820          0.1815E+06
  28066      1    162     52      -3.910          0.1815E+06
  28067      1    162     53      -3.310          0.1815E+06
  28068      1    162     54      -3.110          0.1815E+06
  28069      1    162     55      -3.110          0.1815E+06
  28070      1    162     56      -2.290          0.1815E+06
  28071      1    162     57      -1.170          0.1815E+06
  28072      1    162     58      0.3600          0.1815E+06
  28073      1    162     59      0.5900          0.1815E+06
  28074      1    162     60      0.6000          0.1815E+06
  28075      1    162     61      0.6000          0.1815E+06
  28076      1    162     62       3.100          0.1815E+06
  28077      1    162     63       10.06          0.1815E+06
  28078      1    162     64       9.850          0.1815E+06
  28079      1    162     65       7.900          0.1815E+06
  28080      1    162     66       8.220          0.1815E+06
  28081      1    162     67       8.940          0.1815E+06
  28082      1    162     68       8.980          0.1815E+06
  28083      1    162     69       9.680          0.1815E+06
  28084      1    162     70       10.31          0.1815E+06
  28085      1    162     71       10.96          0.1815E+06
  28086      1    162     72       9.930          0.1815E+06
  28087      1    162     73       10.42          0.1815E+06
  28088      1    162     74       9.320          0.1815E+06
  28089      1    162     75       9.390          0.1815E+06
  28090      1    162     76       10.98          0.1815E+06
  28091      1    162     77       10.27          0.1815E+06
  28092      1    162     78       9.710          0.1815E+06
  28093      1    162     79       11.14          0.1815E+06
  28094      1    162     80       9.970          0.1815E+06
  28095      1    162     81       11.81          0.1815E+06
  28096      1    162     82       9.900          0.1815E+06
  28097      1    162     83       10.97          0.1815E+06
  28098      1    162     84       9.930          0.1815E+06
  28099      1    162     85       9.930          0.1815E+06
  28100      1    162     86       9.670          0.1815E+06
  28101      1    162     87       9.400          0.1815E+06
  28102      1    162     88       9.100          0.1815E+06
  28103      1    162     89       8.170          0.1815E+06
  28104      1    162     90       8.170          0.1815E+06
  28105      1    162     91       7.920          0.1815E+06
  28106      1    162     92       8.070          0.1815E+06
  28107      1    162     93       7.880          0.1815E+06
  28108      1    162     94       6.860          0.1815E+06
  28109      1    162     95       5.920          0.1815E+06
  28110      1    162     96       6.720          0.1815E+06
  28111      1    162     97       5.720          0.1815E+06
  28112      1    162     98       5.730          0.1815E+06
  28113      1    162     99       5.740          0.1815E+06
  28114      1    162    100       9.730          0.1815E+06
  28115      1    162    101       9.730          0.1815E+06
  28116      1    162    102       11.31          0.1815E+06
  28117      1    162    103       9.750          0.1815E+06
  28118      1    162    104       10.72          0.1815E+06
  28119      1    162    105       9.900          0.1815E+06
  28120      1    162    106       7.190          0.1815E+06
  28121      1    162    107       7.250          0.1815E+06
  28122      1    162    108       7.300          0.1815E+06
  28123      1    162    109       7.690          0.1815E+06
  28124      1    162    110       7.230          0.1815E+06
  28125      1    162    111       8.750          0.1815E+06
  28126      1    162    112       7.750          0.1815E+06
  28127      1    162    113       7.750          0.1815E+06
  28128      1    162    114       7.750          0.1815E+06
  28129      1    162    115       7.750          0.1815E+06
  28130      1    162    116       7.740          0.1815E+06
  28131      1    162    117       7.740          0.1815E+06
  28132      1    162    118       8.730          0.1815E+06
  28133      1    162    119       8.730          0.1815E+06
  28134      1    162    120       8.730          0.1815E+06
  28135      1    162    121       8.720          0.1815E+06
  28136      1    162    122       7.730          0.1815E+06
  28137      1    162    123       5.920          0.1815E+06
  28138      1    162    124       7.090          0.1815E+06
  28139      1    162    125       8.840          0.1815E+06
  28140      1    162    126       10.31          0.1815E+06
  28141      1    162    127       11.63          0.1815E+06
  28142      1    162    128       13.88          0.1815E+06
  28143      1    162    129       13.93          0.1815E+06
  28144      1    162    130       13.96          0.1815E+06
  28145      1    162    131       13.27          0.1815E+06
  28146      1    162    132       13.31          0.1815E+06
  28147      1    162    133       14.06          0.1815E+06
  28148      1    162    134       12.85          0.1815E+06
  28149      1    162    135       12.97          0.1815E+06
  28150      1    162    136       13.77          0.1815E+06
  28151      1    162    137       14.46          0.1815E+06
  28152      1    162    138       15.11          0.1815E+06
  28153      1    162    139       16.03          0.1815E+06
  28154      1    162    140       16.94          0.1815E+06
  28155      1    162    141       18.30          0.1815E+06
  28156      1    162    142       21.22          0.1815E+06
  28157      1    162    143       22.20          0.1815E+06
  28158      1    162    144       22.39          0.1815E+06
  28159      1    162    145       22.03          0.1815E+06
  28160      1    162    146       21.29          0.1815E+06
  28161      1    162    147       21.10          0.1815E+06
  28162      1    162    148       20.90          0.1815E+06
  28163      1    162    149       20.44          0.1815E+06
  28164      1    162    150       19.79          0.1815E+06
  28165      1    162    151       21.38          0.1815E+06
  28166      1    162    152       19.54          0.1815E+06
  28167      1    162    153       18.94          0.1815E+06
  28168      1    162    154       19.95          0.1815E+06
  28169      1    162    155       22.54          0.1815E+06
  28170      1    162    156       25.06          0.1815E+06
  28171      1    162    157       26.72          0.1815E+06
  28172      1    162    158       28.70          0.1815E+06
  28173      1    162    159       30.05          0.1815E+06
  28174      1    162    160       31.84          0.1815E+06
  28175      1    162    161       31.56          0.1815E+06
  28176      1    162    162       30.22          0.1815E+06
  28177      1    162    163       28.18          0.1815E+06
  28178      1    162    164       24.93          0.1815E+06
  28179      1    162    165       23.71          0.1815E+06
  28180      1    162    166       18.11          0.1815E+06
  28181      1    162    167       21.12          0.1815E+06
  28182      1    162    168       21.79          0.1815E+06
  28183      1    162    169       22.20          0.1815E+06
  28184      1    162    170       21.95          0.1815E+06
  28185      1    162    171       18.45          0.1815E+06
  28186      1    162    172       13.02          0.1815E+06
  28187      1    162    173       16.10          0.1815E+06
  28188      1    162    174       23.93          0.1815E+06
  28189      1    163      1      -14.61          0.1815E+06
  28190      1    163      2      -14.21          0.1815E+06
  28191      1    163      3      -14.21          0.1815E+06
  28192      1    163      4      -13.56          0.1815E+06
  28193      1    163      5      -13.71          0.1815E+06
  28194      1    163      6      -13.21          0.1815E+06
  28195      1    163      7      -11.81          0.1815E+06
  28196      1    163      8      -10.81          0.1815E+06
  28197      1    163      9      -10.81          0.1815E+06
  28198      1    163     10      -11.21          0.1815E+06
  28199      1    163     11      -12.81          0.1815E+06
  28200      1    163     12      -13.71          0.1815E+06
  28201      1    163     13      -13.61          0.1815E+06
  28202      1    163     14      -14.11          0.1815E+06
  28203      1    163     15      -14.11          0.1815E+06
  28204      1    163     16      -14.00          0.1815E+06
  28205      1    163     17      -13.48          0.1815E+06
  28206      1    163     18      -12.12          0.1815E+06
  28207      1    163     19      -11.72          0.1815E+06
  28208      1    163     20      -12.72          0.1815E+06
  28209      1    163     21      -12.72          0.1815E+06
  28210      1    163     22      -12.99          0.1815E+06
  28211      1    163     23      -13.02          0.1815E+06
  28212      1    163     24      -13.22          0.1815E+06
  28213      1    163     25      -13.32          0.1815E+06
  28214      1    163     26      -13.32          0.1815E+06
  28215      1    163     27      -13.42          0.1815E+06
  28216      1    163     28      -13.83          0.1815E+06
  28217      1    163     29      -13.23          0.1815E+06
  28218      1    163     30      -13.63          0.1815E+06
  28219      1    163     31      -13.53          0.1815E+06
  28220      1    163     32      -13.53          0.1815E+06
  28221      1    163     33      -11.92          0.1815E+06
  28222      1    163     34      -10.64          0.1815E+06
  28223      1    163     35      -9.020          0.1815E+06
  28224      1    163     36      -10.02          0.1815E+06
  28225      1    163     37      -5.720          0.1815E+06
  28226      1    163     38      -5.720          0.1815E+06
  28227      1    163     39      -4.720          0.1815E+06
  28228      1    163     40      -5.870          0.1815E+06
  28229      1    163     41      -6.220          0.1815E+06
  28230      1    163     42      -4.520          0.1815E+06
  28231      1    163     43      -3.020          0.1815E+06
  28232      1    163     44      -3.020          0.1815E+06
  28233      1    163     45      -4.920          0.1815E+06
  28234      1    163     46      -4.120          0.1815E+06
  28235      1    163     47      -3.660          0.1815E+06
  28236      1    163     48      -4.120          0.1815E+06
  28237      1    163     49      -4.120          0.1815E+06
  28238      1    163     50      -3.900          0.1815E+06
  28239      1    163     51      -3.420          0.1815E+06
  28240      1    163     52      -3.710          0.1815E+06
  28241      1    163     53      -3.810          0.1815E+06
  28242      1    163     54      -3.410          0.1815E+06
  28243      1    163     55      -3.410          0.1815E+06
  28244      1    163     56      -2.440          0.1815E+06
  28245      1    163     57      -1.370          0.1815E+06
  28246      1    163     58      0.4000E-01      0.1815E+06
  28247      1    163     59      0.3300          0.1815E+06
  28248      1    163     60      0.5900          0.1815E+06
  28249      1    163     61      0.5900          0.1815E+06
  28250      1    163     62       1.590          0.1815E+06
  28251      1    163     63       5.980          0.1815E+06
  28252      1    163     64       10.06          0.1815E+06
  28253      1    163     65       8.050          0.1815E+06
  28254      1    163     66       7.750          0.1815E+06
  28255      1    163     67       8.310          0.1815E+06
  28256      1    163     68       8.750          0.1815E+06
  28257      1    163     69       9.320          0.1815E+06
  28258      1    163     70       9.380          0.1815E+06
  28259      1    163     71       9.470          0.1815E+06
  28260      1    163     72       10.93          0.1815E+06
  28261      1    163     73       12.03          0.1815E+06
  28262      1    163     74       9.770          0.1815E+06
  28263      1    163     75       9.180          0.1815E+06
  28264      1    163     76       9.940          0.1815E+06
  28265      1    163     77       9.770          0.1815E+06
  28266      1    163     78       9.130          0.1815E+06
  28267      1    163     79       10.69          0.1815E+06
  28268      1    163     80       10.55          0.1815E+06
  28269      1    163     81       10.14          0.1815E+06
  28270      1    163     82       10.40          0.1815E+06
  28271      1    163     83       10.68          0.1815E+06
  28272      1    163     84       9.220          0.1815E+06
  28273      1    163     85       10.80          0.1815E+06
  28274      1    163     86       10.60          0.1815E+06
  28275      1    163     87       9.100          0.1815E+06
  28276      1    163     88       8.970          0.1815E+06
  28277      1    163     89       8.900          0.1815E+06
  28278      1    163     90       7.880          0.1815E+06
  28279      1    163     91       7.550          0.1815E+06
  28280      1    163     92       7.800          0.1815E+06
  28281      1    163     93       6.710          0.1815E+06
  28282      1    163     94       6.710          0.1815E+06
  28283      1    163     95       6.710          0.1815E+06
  28284      1    163     96       5.720          0.1815E+06
  28285      1    163     97       4.730          0.1815E+06
  28286      1    163     98       5.730          0.1815E+06
  28287      1    163     99       5.730          0.1815E+06
  28288      1    163    100       5.740          0.1815E+06
  28289      1    163    101       5.740          0.1815E+06
  28290      1    163    102       5.750          0.1815E+06
  28291      1    163    103       5.740          0.1815E+06
  28292      1    163    104       5.750          0.1815E+06
  28293      1    163    105       6.750          0.1815E+06
  28294      1    163    106       6.750          0.1815E+06
  28295      1    163    107       6.750          0.1815E+06
  28296      1    163    108       7.750          0.1815E+06
  28297      1    163    109       7.760          0.1815E+06
  28298      1    163    110       7.750          0.1815E+06
  28299      1    163    111       7.750          0.1815E+06
  28300      1    163    112       7.750          0.1815E+06
  28301      1    163    113       7.750          0.1815E+06
  28302      1    163    114       7.750          0.1815E+06
  28303      1    163    115       7.750          0.1815E+06
  28304      1    163    116       7.740          0.1815E+06
  28305      1    163    117       7.740          0.1815E+06
  28306      1    163    118       7.730          0.1815E+06
  28307      1    163    119       7.730          0.1815E+06
  28308      1    163    120       7.730          0.1815E+06
  28309      1    163    121       8.730          0.1815E+06
  28310      1    163    122       8.220          0.1815E+06
  28311      1    163    123       8.710          0.1815E+06
  28312      1    163    124       8.710          0.1815E+06
  28313      1    163    125       9.180          0.1815E+06
  28314      1    163    126       9.720          0.1815E+06
  28315      1    163    127       10.98          0.1815E+06
  28316      1    163    128       12.85          0.1815E+06
  28317      1    163    129       13.34          0.1815E+06
  28318      1    163    130       14.40          0.1815E+06
  28319      1    163    131       14.52          0.1815E+06
  28320      1    163    132       13.35          0.1815E+06
  28321      1    163    133       13.18          0.1815E+06
  28322      1    163    134       12.51          0.1815E+06
  28323      1    163    135       12.31          0.1815E+06
  28324      1    163    136       12.89          0.1815E+06
  28325      1    163    137       13.02          0.1815E+06
  28326      1    163    138       13.38          0.1815E+06
  28327      1    163    139       14.50          0.1815E+06
  28328      1    163    140       15.98          0.1815E+06
  28329      1    163    141       18.25          0.1815E+06
  28330      1    163    142       20.00          0.1815E+06
  28331      1    163    143       20.62          0.1815E+06
  28332      1    163    144       21.03          0.1815E+06
  28333      1    163    145       21.00          0.1815E+06
  28334      1    163    146       21.69          0.1815E+06
  28335      1    163    147       22.17          0.1815E+06
  28336      1    163    148       20.90          0.1815E+06
  28337      1    163    149       20.36          0.1815E+06
  28338      1    163    150       19.29          0.1815E+06
  28339      1    163    151       19.42          0.1815E+06
  28340      1    163    152       18.59          0.1815E+06
  28341      1    163    153       17.70          0.1815E+06
  28342      1    163    154       18.29          0.1815E+06
  28343      1    163    155       20.45          0.1815E+06
  28344      1    163    156       22.87          0.1815E+06
  28345      1    163    157       24.63          0.1815E+06
  28346      1    163    158       26.61          0.1815E+06
  28347      1    163    159       28.32          0.1815E+06
  28348      1    163    160       30.38          0.1815E+06
  28349      1    163    161       30.81          0.1815E+06
  28350      1    163    162       30.40          0.1815E+06
  28351      1    163    163       26.81          0.1815E+06
  28352      1    163    164       26.25          0.1815E+06
  28353      1    163    165       24.13          0.1815E+06
  28354      1    163    166       20.28          0.1815E+06
  28355      1    163    167       14.81          0.1815E+06
  28356      1    163    168       13.56          0.1815E+06
  28357      1    163    169       14.88          0.1815E+06
  28358      1    163    170       17.53          0.1815E+06
  28359      1    163    171       12.14          0.1815E+06
  28360      1    163    172       17.78          0.1815E+06
  28361      1    163    173       23.19          0.1815E+06
  28362      1    163    174       25.76          0.1815E+06
  28363      1    164      1      -14.61          0.1815E+06
  28364      1    164      2      -14.21          0.1815E+06
  28365      1    164      3      -14.21          0.1815E+06
  28366      1    164      4      -13.56          0.1815E+06
  28367      1    164      5      -13.71          0.1815E+06
  28368      1    164      6      -13.21          0.1815E+06
  28369      1    164      7      -11.81          0.1815E+06
  28370      1    164      8      -10.81          0.1815E+06
  28371      1    164      9      -10.81          0.1815E+06
  28372      1    164     10      -11.21          0.1815E+06
  28373      1    164     11      -12.81          0.1815E+06
  28374      1    164     12      -13.71          0.1815E+06
  28375      1    164     13      -13.61          0.1815E+06
  28376      1    164     14      -14.11          0.1815E+06
  28377      1    164     15      -14.11          0.1815E+06
  28378      1    164     16      -14.00          0.1815E+06
  28379      1    164     17      -13.48          0.1815E+06
  28380      1    164     18      -12.12          0.1815E+06
  28381      1    164     19      -11.72          0.1815E+06
  28382      1    164     20      -12.72          0.1815E+06
  28383      1    164     21      -12.72          0.1815E+06
  28384      1    164     22      -12.99          0.1815E+06
  28385      1    164     23      -13.02          0.1815E+06
  28386      1    164     24      -13.22          0.1815E+06
  28387      1    164     25      -13.32          0.1815E+06
  28388      1    164     26      -13.32          0.1815E+06
  28389      1    164     27      -13.42          0.1815E+06
  28390      1    164     28      -13.83          0.1815E+06
  28391      1    164     29      -13.23          0.1815E+06
  28392      1    164     30      -13.63          0.1815E+06
  28393      1    164     31      -13.53          0.1815E+06
  28394      1    164     32      -13.53          0.1815E+06
  28395      1    164     33      -11.92          0.1815E+06
  28396      1    164     34      -10.64          0.1815E+06
  28397      1    164     35      -9.020          0.1815E+06
  28398      1    164     36      -10.02          0.1815E+06
  28399      1    164     37      -5.720          0.1815E+06
  28400      1    164     38      -5.720          0.1815E+06
  28401      1    164     39      -4.720          0.1815E+06
  28402      1    164     40      -5.870          0.1815E+06
  28403      1    164     41      -6.220          0.1815E+06
  28404      1    164     42      -4.520          0.1815E+06
  28405      1    164     43      -3.020          0.1815E+06
  28406      1    164     44      -3.020          0.1815E+06
  28407      1    164     45      -4.920          0.1815E+06
  28408      1    164     46      -4.120          0.1815E+06
  28409      1    164     47      -3.660          0.1815E+06
  28410      1    164     48      -4.120          0.1815E+06
  28411      1    164     49      -4.120          0.1815E+06
  28412      1    164     50      -3.900          0.1815E+06
  28413      1    164     51      -3.420          0.1815E+06
  28414      1    164     52      -3.710          0.1815E+06
  28415      1    164     53      -3.810          0.1815E+06
  28416      1    164     54      -3.410          0.1815E+06
  28417      1    164     55      -3.410          0.1815E+06
  28418      1    164     56      -2.440          0.1815E+06
  28419      1    164     57      -1.370          0.1815E+06
  28420      1    164     58      0.4000E-01      0.1815E+06
  28421      1    164     59      0.3300          0.1815E+06
  28422      1    164     60      0.5900          0.1815E+06
  28423      1    164     61      0.5900          0.1815E+06
  28424      1    164     62       1.590          0.1815E+06
  28425      1    164     63       4.570          0.1815E+06
  28426      1    164     64       11.35          0.1815E+06
  28427      1    164     65       8.930          0.1815E+06
  28428      1    164     66       8.050          0.1815E+06
  28429      1    164     67       7.840          0.1815E+06
  28430      1    164     68       8.420          0.1815E+06
  28431      1    164     69       8.670          0.1815E+06
  28432      1    164     70       8.590          0.1815E+06
  28433      1    164     71       9.430          0.1815E+06
  28434      1    164     72       9.420          0.1815E+06
  28435      1    164     73       11.76          0.1815E+06
  28436      1    164     74       10.13          0.1815E+06
  28437      1    164     75       9.020          0.1815E+06
  28438      1    164     76       8.800          0.1815E+06
  28439      1    164     77       9.050          0.1815E+06
  28440      1    164     78       11.43          0.1815E+06
  28441      1    164     79       10.68          0.1815E+06
  28442      1    164     80       8.980          0.1815E+06
  28443      1    164     81       11.22          0.1815E+06
  28444      1    164     82       12.68          0.1815E+06
  28445      1    164     83       10.56          0.1815E+06
  28446      1    164     84       8.900          0.1815E+06
  28447      1    164     85       9.390          0.1815E+06
  28448      1    164     86       9.270          0.1815E+06
  28449      1    164     87       9.100          0.1815E+06
  28450      1    164     88       10.31          0.1815E+06
  28451      1    164     89       8.130          0.1815E+06
  28452      1    164     90       8.170          0.1815E+06
  28453      1    164     91       7.800          0.1815E+06
  28454      1    164     92       6.010          0.1815E+06
  28455      1    164     93       6.710          0.1815E+06
  28456      1    164     94       6.710          0.1815E+06
  28457      1    164     95       6.710          0.1815E+06
  28458      1    164     96       5.720          0.1815E+06
  28459      1    164     97       4.730          0.1815E+06
  28460      1    164     98       5.730          0.1815E+06
  28461      1    164     99       5.730          0.1815E+06
  28462      1    164    100       5.740          0.1815E+06
  28463      1    164    101       5.740          0.1815E+06
  28464      1    164    102       5.750          0.1815E+06
  28465      1    164    103       5.740          0.1815E+06
  28466      1    164    104       5.750          0.1815E+06
  28467      1    164    105       6.750          0.1815E+06
  28468      1    164    106       6.750          0.1815E+06
  28469      1    164    107       6.750          0.1815E+06
  28470      1    164    108       7.750          0.1815E+06
  28471      1    164    109       7.760          0.1815E+06
  28472      1    164    110       7.750          0.1815E+06
  28473      1    164    111       7.750          0.1815E+06
  28474      1    164    112       7.750          0.1815E+06
  28475      1    164    113       7.750          0.1815E+06
  28476      1    164    114       7.750          0.1815E+06
  28477      1    164    115       7.750          0.1815E+06
  28478      1    164    116       7.740          0.1815E+06
  28479      1    164    117       7.740          0.1815E+06
  28480      1    164    118       7.730          0.1815E+06
  28481      1    164    119       7.730          0.1815E+06
  28482      1    164    120       7.730          0.1815E+06
  28483      1    164    121       8.730          0.1815E+06
  28484      1    164    122       8.220          0.1815E+06
  28485      1    164    123       8.710          0.1815E+06
  28486      1    164    124       8.710          0.1815E+06
  28487      1    164    125       7.860          0.1815E+06
  28488      1    164    126       8.520          0.1815E+06
  28489      1    164    127       10.57          0.1815E+06
  28490      1    164    128       12.23          0.1815E+06
  28491      1    164    129       13.39          0.1815E+06
  28492      1    164    130       14.22          0.1815E+06
  28493      1    164    131       13.72          0.1815E+06
  28494      1    164    132       12.22          0.1815E+06
  28495      1    164    133       10.52          0.1815E+06
  28496      1    164    134       10.92          0.1815E+06
  28497      1    164    135       11.75          0.1815E+06
  28498      1    164    136       11.97          0.1815E+06
  28499      1    164    137       10.96          0.1815E+06
  28500      1    164    138       11.57          0.1815E+06
  28501      1    164    139       13.42          0.1815E+06
  28502      1    164    140       15.40          0.1815E+06
  28503      1    164    141       17.19          0.1815E+06
  28504      1    164    142       18.38          0.1815E+06
  28505      1    164    143       18.56          0.1815E+06
  28506      1    164    144       18.82          0.1815E+06
  28507      1    164    145       20.71          0.1815E+06
  28508      1    164    146       21.95          0.1815E+06
  28509      1    164    147       21.09          0.1815E+06
  28510      1    164    148       20.27          0.1815E+06
  28511      1    164    149       20.13          0.1815E+06
  28512      1    164    150       19.53          0.1815E+06
  28513      1    164    151       19.09          0.1815E+06
  28514      1    164    152       18.45          0.1815E+06
  28515      1    164    153       18.54          0.1815E+06
  28516      1    164    154       16.27          0.1815E+06
  28517      1    164    155       18.55          0.1815E+06
  28518      1    164    156       20.88          0.1815E+06
  28519      1    164    157       22.42          0.1815E+06
  28520      1    164    158       24.34          0.1815E+06
  28521      1    164    159       26.54          0.1815E+06
  28522      1    164    160       28.30          0.1815E+06
  28523      1    164    161       29.60          0.1815E+06
  28524      1    164    162       29.57          0.1815E+06
  28525      1    164    163       28.31          0.1815E+06
  28526      1    164    164       26.55          0.1815E+06
  28527      1    164    165       24.77          0.1815E+06
  28528      1    164    166       23.26          0.1815E+06
  28529      1    164    167       21.45          0.1815E+06
  28530      1    164    168       14.18          0.1815E+06
  28531      1    164    169       12.02          0.1815E+06
  28532      1    164    170       11.82          0.1815E+06
  28533      1    164    171       15.50          0.1815E+06
  28534      1    164    172       22.96          0.1815E+06
  28535      1    164    173       25.90          0.1815E+06
  28536      1    164    174       27.68          0.1815E+06
  28537      1    165      1      -15.12          0.1815E+06
  28538      1    165      2      -15.31          0.1815E+06
  28539      1    165      3      -15.31          0.1815E+06
  28540      1    165      4      -14.41          0.1815E+06
  28541      1    165      5      -14.09          0.1815E+06
  28542      1    165      6      -13.71          0.1815E+06
  28543      1    165      7      -13.11          0.1815E+06
  28544      1    165      8      -10.81          0.1815E+06
  28545      1    165      9      -10.81          0.1815E+06
  28546      1    165     10      -11.21          0.1815E+06
  28547      1    165     11      -12.81          0.1815E+06
  28548      1    165     12      -13.71          0.1815E+06
  28549      1    165     13      -13.50          0.1815E+06
  28550      1    165     14      -13.85          0.1815E+06
  28551      1    165     15      -13.85          0.1815E+06
  28552      1    165     16      -13.90          0.1815E+06
  28553      1    165     17      -13.72          0.1815E+06
  28554      1    165     18      -12.52          0.1815E+06
  28555      1    165     19      -12.81          0.1815E+06
  28556      1    165     20      -13.52          0.1815E+06
  28557      1    165     21      -13.52          0.1815E+06
  28558      1    165     22      -13.17          0.1815E+06
  28559      1    165     23      -13.03          0.1815E+06
  28560      1    165     24      -13.02          0.1815E+06
  28561      1    165     25      -13.02          0.1815E+06
  28562      1    165     26      -13.02          0.1815E+06
  28563      1    165     27      -13.33          0.1815E+06
  28564      1    165     28      -13.93          0.1815E+06
  28565      1    165     29      -13.93          0.1815E+06
  28566      1    165     30      -13.63          0.1815E+06
  28567      1    165     31      -12.43          0.1815E+06
  28568      1    165     32      -12.43          0.1815E+06
  28569      1    165     33      -11.92          0.1815E+06
  28570      1    165     34      -10.64          0.1815E+06
  28571      1    165     35      -9.020          0.1815E+06
  28572      1    165     36      -10.02          0.1815E+06
  28573      1    165     37      -6.910          0.1815E+06
  28574      1    165     38      -6.910          0.1815E+06
  28575      1    165     39      -4.720          0.1815E+06
  28576      1    165     40      -5.720          0.1815E+06
  28577      1    165     41      -6.520          0.1815E+06
  28578      1    165     42      -5.820          0.1815E+06
  28579      1    165     43      -5.820          0.1815E+06
  28580      1    165     44      -5.820          0.1815E+06
  28581      1    165     45      -5.520          0.1815E+06
  28582      1    165     46      -4.700          0.1815E+06
  28583      1    165     47      -4.050          0.1815E+06
  28584      1    165     48      -4.120          0.1815E+06
  28585      1    165     49      -4.120          0.1815E+06
  28586      1    165     50      -4.020          0.1815E+06
  28587      1    165     51      -3.630          0.1815E+06
  28588      1    165     52      -3.820          0.1815E+06
  28589      1    165     53      -3.590          0.1815E+06
  28590      1    165     54      -3.210          0.1815E+06
  28591      1    165     55      -3.210          0.1815E+06
  28592      1    165     56      -2.460          0.1815E+06
  28593      1    165     57      -1.530          0.1815E+06
  28594      1    165     58      0.4000E-01      0.1815E+06
  28595      1    165     59      0.3300          0.1815E+06
  28596      1    165     60      0.5900          0.1815E+06
  28597      1    165     61      0.5900          0.1815E+06
  28598      1    165     62       1.590          0.1815E+06
  28599      1    165     63       7.610          0.1815E+06
  28600      1    165     64       8.710          0.1815E+06
  28601      1    165     65       8.680          0.1815E+06
  28602      1    165     66       7.820          0.1815E+06
  28603      1    165     67       8.380          0.1815E+06
  28604      1    165     68       7.880          0.1815E+06
  28605      1    165     69       9.170          0.1815E+06
  28606      1    165     70       8.550          0.1815E+06
  28607      1    165     71       8.430          0.1815E+06
  28608      1    165     72       8.690          0.1815E+06
  28609      1    165     73       15.06          0.1815E+06
  28610      1    165     74       11.18          0.1815E+06
  28611      1    165     75       10.53          0.1815E+06
  28612      1    165     76       9.730          0.1815E+06
  28613      1    165     77       9.850          0.1815E+06
  28614      1    165     78       10.86          0.1815E+06
  28615      1    165     79       9.520          0.1815E+06
  28616      1    165     80       13.14          0.1815E+06
  28617      1    165     81       13.46          0.1815E+06
  28618      1    165     82       12.06          0.1815E+06
  28619      1    165     83       10.19          0.1815E+06
  28620      1    165     84       9.510          0.1815E+06
  28621      1    165     85       11.89          0.1815E+06
  28622      1    165     86       10.18          0.1815E+06
  28623      1    165     87       11.51          0.1815E+06
  28624      1    165     88       11.60          0.1815E+06
  28625      1    165     89       8.880          0.1815E+06
  28626      1    165     90       8.980          0.1815E+06
  28627      1    165     91       5.820          0.1815E+06
  28628      1    165     92       5.720          0.1815E+06
  28629      1    165     93       4.720          0.1815E+06
  28630      1    165     94       4.720          0.1815E+06
  28631      1    165     95       4.720          0.1815E+06
  28632      1    165     96       5.720          0.1815E+06
  28633      1    165     97       4.720          0.1815E+06
  28634      1    165     98       3.740          0.1815E+06
  28635      1    165     99       3.740          0.1815E+06
  28636      1    165    100       4.740          0.1815E+06
  28637      1    165    101       4.740          0.1815E+06
  28638      1    165    102       5.740          0.1815E+06
  28639      1    165    103       4.750          0.1815E+06
  28640      1    165    104       4.760          0.1815E+06
  28641      1    165    105       5.260          0.1815E+06
  28642      1    165    106       4.750          0.1815E+06
  28643      1    165    107       4.750          0.1815E+06
  28644      1    165    108       5.760          0.1815E+06
  28645      1    165    109       7.760          0.1815E+06
  28646      1    165    110       7.750          0.1815E+06
  28647      1    165    111       7.750          0.1815E+06
  28648      1    165    112       7.750          0.1815E+06
  28649      1    165    113       7.750          0.1815E+06
  28650      1    165    114       7.750          0.1815E+06
  28651      1    165    115       7.740          0.1815E+06
  28652      1    165    116       7.750          0.1815E+06
  28653      1    165    117       7.730          0.1815E+06
  28654      1    165    118       7.730          0.1815E+06
  28655      1    165    119       7.730          0.1815E+06
  28656      1    165    120       7.730          0.1815E+06
  28657      1    165    121       7.730          0.1815E+06
  28658      1    165    122       7.730          0.1815E+06
  28659      1    165    123       7.720          0.1815E+06
  28660      1    165    124       7.720          0.1815E+06
  28661      1    165    125       7.720          0.1815E+06
  28662      1    165    126       8.720          0.1815E+06
  28663      1    165    127       10.98          0.1815E+06
  28664      1    165    128       12.35          0.1815E+06
  28665      1    165    129       12.65          0.1815E+06
  28666      1    165    130       12.73          0.1815E+06
  28667      1    165    131       11.88          0.1815E+06
  28668      1    165    132       10.32          0.1815E+06
  28669      1    165    133       8.460          0.1815E+06
  28670      1    165    134       8.400          0.1815E+06
  28671      1    165    135       9.000          0.1815E+06
  28672      1    165    136       10.81          0.1815E+06
  28673      1    165    137       11.78          0.1815E+06
  28674      1    165    138       12.55          0.1815E+06
  28675      1    165    139       13.48          0.1815E+06
  28676      1    165    140       13.52          0.1815E+06
  28677      1    165    141       14.68          0.1815E+06
  28678      1    165    142       17.06          0.1815E+06
  28679      1    165    143       18.28          0.1815E+06
  28680      1    165    144       19.14          0.1815E+06
  28681      1    165    145       20.71          0.1815E+06
  28682      1    165    146       20.73          0.1815E+06
  28683      1    165    147       20.76          0.1815E+06
  28684      1    165    148       20.73          0.1815E+06
  28685      1    165    149       20.79          0.1815E+06
  28686      1    165    150       20.02          0.1815E+06
  28687      1    165    151       19.57          0.1815E+06
  28688      1    165    152       19.54          0.1815E+06
  28689      1    165    153       19.31          0.1815E+06
  28690      1    165    154       17.61          0.1815E+06
  28691      1    165    155       16.68          0.1815E+06
  28692      1    165    156       19.45          0.1815E+06
  28693      1    165    157       21.15          0.1815E+06
  28694      1    165    158       22.78          0.1815E+06
  28695      1    165    159       24.40          0.1815E+06
  28696      1    165    160       26.43          0.1815E+06
  28697      1    165    161       28.03          0.1815E+06
  28698      1    165    162       28.87          0.1815E+06
  28699      1    165    163       28.04          0.1815E+06
  28700      1    165    164       26.47          0.1815E+06
  28701      1    165    165       24.34          0.1815E+06
  28702      1    165    166       22.05          0.1815E+06
  28703      1    165    167       21.28          0.1815E+06
  28704      1    165    168       17.81          0.1815E+06
  28705      1    165    169       11.14          0.1815E+06
  28706      1    165    170       12.85          0.1815E+06
  28707      1    165    171       20.20          0.1815E+06
  28708      1    165    172       24.50          0.1815E+06
  28709      1    165    173       26.72          0.1815E+06
  28710      1    165    174       28.20          0.1815E+06
  28711      1    166      1      -15.41          0.1815E+06
  28712      1    166      2      -15.54          0.1815E+06
  28713      1    166      3      -15.54          0.1815E+06
  28714      1    166      4      -14.41          0.1815E+06
  28715      1    166      5      -14.09          0.1815E+06
  28716      1    166      6      -13.71          0.1815E+06
  28717      1    166      7      -12.31          0.1815E+06
  28718      1    166      8      -11.87          0.1815E+06
  28719      1    166      9      -11.87          0.1815E+06
  28720      1    166     10      -12.21          0.1815E+06
  28721      1    166     11      -12.22          0.1815E+06
  28722      1    166     12      -12.95          0.1815E+06
  28723      1    166     13      -12.92          0.1815E+06
  28724      1    166     14      -13.52          0.1815E+06
  28725      1    166     15      -13.52          0.1815E+06
  28726      1    166     16      -13.72          0.1815E+06
  28727      1    166     17      -13.89          0.1815E+06
  28728      1    166     18      -13.82          0.1815E+06
  28729      1    166     19      -13.92          0.1815E+06
  28730      1    166     20      -13.52          0.1815E+06
  28731      1    166     21      -13.52          0.1815E+06
  28732      1    166     22      -13.34          0.1815E+06
  28733      1    166     23      -12.93          0.1815E+06
  28734      1    166     24      -12.93          0.1815E+06
  28735      1    166     25      -13.13          0.1815E+06
  28736      1    166     26      -13.13          0.1815E+06
  28737      1    166     27      -14.42          0.1815E+06
  28738      1    166     28      -13.93          0.1815E+06
  28739      1    166     29      -13.93          0.1815E+06
  28740      1    166     30      -13.63          0.1815E+06
  28741      1    166     31      -12.43          0.1815E+06
  28742      1    166     32      -12.43          0.1815E+06
  28743      1    166     33      -11.93          0.1815E+06
  28744      1    166     34      -11.66          0.1815E+06
  28745      1    166     35      -11.82          0.1815E+06
  28746      1    166     36      -10.93          0.1815E+06
  28747      1    166     37      -10.02          0.1815E+06
  28748      1    166     38      -10.02          0.1815E+06
  28749      1    166     39      -8.220          0.1815E+06
  28750      1    166     40      -7.900          0.1815E+06
  28751      1    166     41      -7.650          0.1815E+06
  28752      1    166     42      -5.620          0.1815E+06
  28753      1    166     43      -5.740          0.1815E+06
  28754      1    166     44      -5.740          0.1815E+06
  28755      1    166     45      -5.400          0.1815E+06
  28756      1    166     46      -4.920          0.1815E+06
  28757      1    166     47      -4.220          0.1815E+06
  28758      1    166     48      -4.420          0.1815E+06
  28759      1    166     49      -4.420          0.1815E+06
  28760      1    166     50      -3.770          0.1815E+06
  28761      1    166     51      -3.420          0.1815E+06
  28762      1    166     52      -3.620          0.1815E+06
  28763      1    166     53      -3.590          0.1815E+06
  28764      1    166     54      -3.210          0.1815E+06
  28765      1    166     55      -3.210          0.1815E+06
  28766      1    166     56      -2.460          0.1815E+06
  28767      1    166     57     -0.7100          0.1815E+06
  28768      1    166     58     -0.3700          0.1815E+06
  28769      1    166     59     -0.5000E-01      0.1815E+06
  28770      1    166     60      0.5900          0.1815E+06
  28771      1    166     61      0.5900          0.1815E+06
  28772      1    166     62       2.600          0.1815E+06
  28773      1    166     63       4.600          0.1815E+06
  28774      1    166     64       7.600          0.1815E+06
  28775      1    166     65       9.780          0.1815E+06
  28776      1    166     66       8.360          0.1815E+06
  28777      1    166     67       8.020          0.1815E+06
  28778      1    166     68       7.800          0.1815E+06
  28779      1    166     69       7.730          0.1815E+06
  28780      1    166     70       8.630          0.1815E+06
  28781      1    166     71       8.780          0.1815E+06
  28782      1    166     72       10.27          0.1815E+06
  28783      1    166     73       10.25          0.1815E+06
  28784      1    166     74       11.13          0.1815E+06
  28785      1    166     75       14.06          0.1815E+06
  28786      1    166     76       14.77          0.1815E+06
  28787      1    166     77       13.65          0.1815E+06
  28788      1    166     78       15.35          0.1815E+06
  28789      1    166     79       8.340          0.1815E+06
  28790      1    166     80       8.350          0.1815E+06
  28791      1    166     81       9.520          0.1815E+06
  28792      1    166     82       16.25          0.1815E+06
  28793      1    166     83       12.81          0.1815E+06
  28794      1    166     84       10.27          0.1815E+06
  28795      1    166     85       8.730          0.1815E+06
  28796      1    166     86       8.220          0.1815E+06
  28797      1    166     87       7.900          0.1815E+06
  28798      1    166     88       9.390          0.1815E+06
  28799      1    166     89       9.700          0.1815E+06
  28800      1    166     90       9.700          0.1815E+06
  28801      1    166     91       6.700          0.1815E+06
  28802      1    166     92       5.710          0.1815E+06
  28803      1    166     93       4.710          0.1815E+06
  28804      1    166     94       4.710          0.1815E+06
  28805      1    166     95       4.710          0.1815E+06
  28806      1    166     96       4.720          0.1815E+06
  28807      1    166     97       4.730          0.1815E+06
  28808      1    166     98       4.730          0.1815E+06
  28809      1    166     99       4.730          0.1815E+06
  28810      1    166    100       4.740          0.1815E+06
  28811      1    166    101       4.740          0.1815E+06
  28812      1    166    102       4.750          0.1815E+06
  28813      1    166    103       4.750          0.1815E+06
  28814      1    166    104       4.760          0.1815E+06
  28815      1    166    105       5.260          0.1815E+06
  28816      1    166    106       4.760          0.1815E+06
  28817      1    166    107       4.760          0.1815E+06
  28818      1    166    108       5.760          0.1815E+06
  28819      1    166    109       6.760          0.1815E+06
  28820      1    166    110       6.750          0.1815E+06
  28821      1    166    111       6.760          0.1815E+06
  28822      1    166    112       6.750          0.1815E+06
  28823      1    166    113       6.750          0.1815E+06
  28824      1    166    114       6.760          0.1815E+06
  28825      1    166    115       6.750          0.1815E+06
  28826      1    166    116       6.740          0.1815E+06
  28827      1    166    117       6.740          0.1815E+06
  28828      1    166    118       6.740          0.1815E+06
  28829      1    166    119       6.740          0.1815E+06
  28830      1    166    120       6.730          0.1815E+06
  28831      1    166    121       6.740          0.1815E+06
  28832      1    166    122       7.720          0.1815E+06
  28833      1    166    123       7.730          0.1815E+06
  28834      1    166    124       7.730          0.1815E+06
  28835      1    166    125       7.720          0.1815E+06
  28836      1    166    126       7.710          0.1815E+06
  28837      1    166    127       11.17          0.1815E+06
  28838      1    166    128       11.00          0.1815E+06
  28839      1    166    129       11.47          0.1815E+06
  28840      1    166    130       10.97          0.1815E+06
  28841      1    166    131       10.32          0.1815E+06
  28842      1    166    132       8.130          0.1815E+06
  28843      1    166    133       7.440          0.1815E+06
  28844      1    166    134       9.210          0.1815E+06
  28845      1    166    135       11.27          0.1815E+06
  28846      1    166    136       12.23          0.1815E+06
  28847      1    166    137       13.06          0.1815E+06
  28848      1    166    138       13.64          0.1815E+06
  28849      1    166    139       14.72          0.1815E+06
  28850      1    166    140       15.51          0.1815E+06
  28851      1    166    141       15.35          0.1815E+06
  28852      1    166    142       16.76          0.1815E+06
  28853      1    166    143       17.96          0.1815E+06
  28854      1    166    144       18.76          0.1815E+06
  28855      1    166    145       20.28          0.1815E+06
  28856      1    166    146       20.69          0.1815E+06
  28857      1    166    147       20.73          0.1815E+06
  28858      1    166    148       21.20          0.1815E+06
  28859      1    166    149       21.23          0.1815E+06
  28860      1    166    150       20.68          0.1815E+06
  28861      1    166    151       20.27          0.1815E+06
  28862      1    166    152       19.92          0.1815E+06
  28863      1    166    153       19.57          0.1815E+06
  28864      1    166    154       17.36          0.1815E+06
  28865      1    166    155       17.04          0.1815E+06
  28866      1    166    156       18.62          0.1815E+06
  28867      1    166    157       20.39          0.1815E+06
  28868      1    166    158       21.95          0.1815E+06
  28869      1    166    159       23.37          0.1815E+06
  28870      1    166    160       24.65          0.1815E+06
  28871      1    166    161       25.94          0.1815E+06
  28872      1    166    162       27.02          0.1815E+06
  28873      1    166    163       26.28          0.1815E+06
  28874      1    166    164       23.19          0.1815E+06
  28875      1    166    165       23.02          0.1815E+06
  28876      1    166    166       21.87          0.1815E+06
  28877      1    166    167       19.97          0.1815E+06
  28878      1    166    168       14.69          0.1815E+06
  28879      1    166    169       11.14          0.1815E+06
  28880      1    166    170       16.46          0.1815E+06
  28881      1    166    171       22.39          0.1815E+06
  28882      1    166    172       24.86          0.1815E+06
  28883      1    166    173       25.96          0.1815E+06
  28884      1    166    174       29.23          0.1815E+06
  28885      1    167      1      -15.41          0.1815E+06
  28886      1    167      2      -15.54          0.1815E+06
  28887      1    167      3      -15.54          0.1815E+06
  28888      1    167      4      -15.12          0.1815E+06
  28889      1    167      5      -14.32          0.1815E+06
  28890      1    167      6      -14.11          0.1815E+06
  28891      1    167      7      -12.72          0.1815E+06
  28892      1    167      8      -12.71          0.1815E+06
  28893      1    167      9      -12.71          0.1815E+06
  28894      1    167     10      -12.41          0.1815E+06
  28895      1    167     11      -12.10          0.1815E+06
  28896      1    167     12      -12.52          0.1815E+06
  28897      1    167     13      -12.62          0.1815E+06
  28898      1    167     14      -13.31          0.1815E+06
  28899      1    167     15      -13.31          0.1815E+06
  28900      1    167     16      -13.50          0.1815E+06
  28901      1    167     17      -13.82          0.1815E+06
  28902      1    167     18      -13.62          0.1815E+06
  28903      1    167     19      -13.93          0.1815E+06
  28904      1    167     20      -13.83          0.1815E+06
  28905      1    167     21      -13.83          0.1815E+06
  28906      1    167     22      -13.43          0.1815E+06
  28907      1    167     23      -13.87          0.1815E+06
  28908      1    167     24      -12.93          0.1815E+06
  28909      1    167     25      -13.13          0.1815E+06
  28910      1    167     26      -13.13          0.1815E+06
  28911      1    167     27      -14.42          0.1815E+06
  28912      1    167     28      -13.53          0.1815E+06
  28913      1    167     29      -13.63          0.1815E+06
  28914      1    167     30      -13.40          0.1815E+06
  28915      1    167     31      -12.51          0.1815E+06
  28916      1    167     32      -12.51          0.1815E+06
  28917      1    167     33      -12.03          0.1815E+06
  28918      1    167     34      -11.93          0.1815E+06
  28919      1    167     35      -12.27          0.1815E+06
  28920      1    167     36      -11.65          0.1815E+06
  28921      1    167     37      -9.830          0.1815E+06
  28922      1    167     38      -9.830          0.1815E+06
  28923      1    167     39      -9.530          0.1815E+06
  28924      1    167     40      -9.820          0.1815E+06
  28925      1    167     41      -10.12          0.1815E+06
  28926      1    167     42      -6.410          0.1815E+06
  28927      1    167     43      -5.630          0.1815E+06
  28928      1    167     44      -5.630          0.1815E+06
  28929      1    167     45      -5.120          0.1815E+06
  28930      1    167     46      -4.820          0.1815E+06
  28931      1    167     47      -4.330          0.1815E+06
  28932      1    167     48      -4.420          0.1815E+06
  28933      1    167     49      -4.420          0.1815E+06
  28934      1    167     50      -3.770          0.1815E+06
  28935      1    167     51      -3.420          0.1815E+06
  28936      1    167     52      -3.620          0.1815E+06
  28937      1    167     53      -3.320          0.1815E+06
  28938      1    167     54      -3.130          0.1815E+06
  28939      1    167     55      -3.130          0.1815E+06
  28940      1    167     56      -2.620          0.1815E+06
  28941      1    167     57      -1.120          0.1815E+06
  28942      1    167     58      -1.190          0.1815E+06
  28943      1    167     59      -1.310          0.1815E+06
  28944      1    167     60      -1.210          0.1815E+06
  28945      1    167     61      -1.210          0.1815E+06
  28946      1    167     62      0.6000          0.1815E+06
  28947      1    167     63       2.600          0.1815E+06
  28948      1    167     64       5.110          0.1815E+06
  28949      1    167     65       9.110          0.1815E+06
  28950      1    167     66       8.510          0.1815E+06
  28951      1    167     67       7.670          0.1815E+06
  28952      1    167     68       8.570          0.1815E+06
  28953      1    167     69       8.220          0.1815E+06
  28954      1    167     70       8.890          0.1815E+06
  28955      1    167     71       9.180          0.1815E+06
  28956      1    167     72       9.180          0.1815E+06
  28957      1    167     73       8.930          0.1815E+06
  28958      1    167     74       9.190          0.1815E+06
  28959      1    167     75       9.170          0.1815E+06
  28960      1    167     76       9.360          0.1815E+06
  28961      1    167     77       10.13          0.1815E+06
  28962      1    167     78       9.020          0.1815E+06
  28963      1    167     79       8.730          0.1815E+06
  28964      1    167     80       8.760          0.1815E+06
  28965      1    167     81       8.350          0.1815E+06
  28966      1    167     82       13.63          0.1815E+06
  28967      1    167     83       13.47          0.1815E+06
  28968      1    167     84       9.390          0.1815E+06
  28969      1    167     85       9.180          0.1815E+06
  28970      1    167     86       9.560          0.1815E+06
  28971      1    167     87       9.750          0.1815E+06
  28972      1    167     88       8.690          0.1815E+06
  28973      1    167     89       6.700          0.1815E+06
  28974      1    167     90       6.700          0.1815E+06
  28975      1    167     91       4.700          0.1815E+06
  28976      1    167     92       4.710          0.1815E+06
  28977      1    167     93       4.720          0.1815E+06
  28978      1    167     94       4.720          0.1815E+06
  28979      1    167     95       4.720          0.1815E+06
  28980      1    167     96       4.720          0.1815E+06
  28981      1    167     97       4.730          0.1815E+06
  28982      1    167     98       4.730          0.1815E+06
  28983      1    167     99       4.730          0.1815E+06
  28984      1    167    100       4.740          0.1815E+06
  28985      1    167    101       4.740          0.1815E+06
  28986      1    167    102       4.750          0.1815E+06
  28987      1    167    103       4.750          0.1815E+06
  28988      1    167    104       4.750          0.1815E+06
  28989      1    167    105       4.760          0.1815E+06
  28990      1    167    106       4.760          0.1815E+06
  28991      1    167    107       4.760          0.1815E+06
  28992      1    167    108       4.760          0.1815E+06
  28993      1    167    109       5.770          0.1815E+06
  28994      1    167    110       5.760          0.1815E+06
  28995      1    167    111       6.750          0.1815E+06
  28996      1    167    112       6.760          0.1815E+06
  28997      1    167    113       6.760          0.1815E+06
  28998      1    167    114       6.750          0.1815E+06
  28999      1    167    115       6.750          0.1815E+06
  29000      1    167    116       6.740          0.1815E+06
  29001      1    167    117       6.740          0.1815E+06
  29002      1    167    118       6.730          0.1815E+06
  29003      1    167    119       6.730          0.1815E+06
  29004      1    167    120       6.740          0.1815E+06
  29005      1    167    121       6.720          0.1815E+06
  29006      1    167    122       6.730          0.1815E+06
  29007      1    167    123       6.730          0.1815E+06
  29008      1    167    124       6.730          0.1815E+06
  29009      1    167    125       7.710          0.1815E+06
  29010      1    167    126       8.720          0.1815E+06
  29011      1    167    127       6.030          0.1815E+06
  29012      1    167    128       9.270          0.1815E+06
  29013      1    167    129       9.680          0.1815E+06
  29014      1    167    130       8.590          0.1815E+06
  29015      1    167    131       8.170          0.1815E+06
  29016      1    167    132       6.780          0.1815E+06
  29017      1    167    133       8.750          0.1815E+06
  29018      1    167    134       9.970          0.1815E+06
  29019      1    167    135       11.88          0.1815E+06
  29020      1    167    136       12.44          0.1815E+06
  29021      1    167    137       13.14          0.1815E+06
  29022      1    167    138       13.93          0.1815E+06
  29023      1    167    139       15.64          0.1815E+06
  29024      1    167    140       16.61          0.1815E+06
  29025      1    167    141       16.38          0.1815E+06
  29026      1    167    142       17.10          0.1815E+06
  29027      1    167    143       18.70          0.1815E+06
  29028      1    167    144       19.90          0.1815E+06
  29029      1    167    145       20.88          0.1815E+06
  29030      1    167    146       21.01          0.1815E+06
  29031      1    167    147       21.20          0.1815E+06
  29032      1    167    148       21.19          0.1815E+06
  29033      1    167    149       21.12          0.1815E+06
  29034      1    167    150       20.80          0.1815E+06
  29035      1    167    151       20.14          0.1815E+06
  29036      1    167    152       19.76          0.1815E+06
  29037      1    167    153       18.64          0.1815E+06
  29038      1    167    154       17.56          0.1815E+06
  29039      1    167    155       15.01          0.1815E+06
  29040      1    167    156       20.06          0.1815E+06
  29041      1    167    157       21.70          0.1815E+06
  29042      1    167    158       22.28          0.1815E+06
  29043      1    167    159       22.43          0.1815E+06
  29044      1    167    160       23.05          0.1815E+06
  29045      1    167    161       24.25          0.1815E+06
  29046      1    167    162       25.43          0.1815E+06
  29047      1    167    163       25.00          0.1815E+06
  29048      1    167    164       23.73          0.1815E+06
  29049      1    167    165       22.04          0.1815E+06
  29050      1    167    166       20.80          0.1815E+06
  29051      1    167    167       18.07          0.1815E+06
  29052      1    167    168       11.26          0.1815E+06
  29053      1    167    169       11.36          0.1815E+06
  29054      1    167    170       16.90          0.1815E+06
  29055      1    167    171       22.72          0.1815E+06
  29056      1    167    172       25.04          0.1815E+06
  29057      1    167    173       27.70          0.1815E+06
  29058      1    167    174       28.68          0.1815E+06
  29059      1    168      1      -15.42          0.1815E+06
  29060      1    168      2      -15.62          0.1815E+06
  29061      1    168      3      -15.62          0.1815E+06
  29062      1    168      4      -15.92          0.1815E+06
  29063      1    168      5      -14.82          0.1815E+06
  29064      1    168      6      -14.37          0.1815E+06
  29065      1    168      7      -13.33          0.1815E+06
  29066      1    168      8      -12.76          0.1815E+06
  29067      1    168      9      -12.76          0.1815E+06
  29068      1    168     10      -12.37          0.1815E+06
  29069      1    168     11      -12.32          0.1815E+06
  29070      1    168     12      -12.40          0.1815E+06
  29071      1    168     13      -12.77          0.1815E+06
  29072      1    168     14      -13.52          0.1815E+06
  29073      1    168     15      -13.52          0.1815E+06
  29074      1    168     16      -13.42          0.1815E+06
  29075      1    168     17      -13.46          0.1815E+06
  29076      1    168     18      -13.32          0.1815E+06
  29077      1    168     19      -13.93          0.1815E+06
  29078      1    168     20      -13.83          0.1815E+06
  29079      1    168     21      -13.83          0.1815E+06
  29080      1    168     22      -13.43          0.1815E+06
  29081      1    168     23      -13.87          0.1815E+06
  29082      1    168     24      -14.03          0.1815E+06
  29083      1    168     25      -14.03          0.1815E+06
  29084      1    168     26      -14.03          0.1815E+06
  29085      1    168     27      -13.63          0.1815E+06
  29086      1    168     28      -13.24          0.1815E+06
  29087      1    168     29      -13.28          0.1815E+06
  29088      1    168     30      -13.33          0.1815E+06
  29089      1    168     31      -13.23          0.1815E+06
  29090      1    168     32      -13.23          0.1815E+06
  29091      1    168     33      -12.43          0.1815E+06
  29092      1    168     34      -12.50          0.1815E+06
  29093      1    168     35      -12.89          0.1815E+06
  29094      1    168     36      -11.92          0.1815E+06
  29095      1    168     37      -11.23          0.1815E+06
  29096      1    168     38      -11.23          0.1815E+06
  29097      1    168     39      -11.02          0.1815E+06
  29098      1    168     40      -10.22          0.1815E+06
  29099      1    168     41      -8.290          0.1815E+06
  29100      1    168     42      -7.760          0.1815E+06
  29101      1    168     43      -5.630          0.1815E+06
  29102      1    168     44      -5.630          0.1815E+06
  29103      1    168     45      -5.120          0.1815E+06
  29104      1    168     46      -4.620          0.1815E+06
  29105      1    168     47      -4.330          0.1815E+06
  29106      1    168     48      -4.020          0.1815E+06
  29107      1    168     49      -4.020          0.1815E+06
  29108      1    168     50      -3.970          0.1815E+06
  29109      1    168     51      -3.800          0.1815E+06
  29110      1    168     52      -4.220          0.1815E+06
  29111      1    168     53      -3.730          0.1815E+06
  29112      1    168     54      -3.490          0.1815E+06
  29113      1    168     55      -3.490          0.1815E+06
  29114      1    168     56      -3.160          0.1815E+06
  29115      1    168     57      -2.520          0.1815E+06
  29116      1    168     58      -2.290          0.1815E+06
  29117      1    168     59      -2.200          0.1815E+06
  29118      1    168     60      -1.780          0.1815E+06
  29119      1    168     61      -1.780          0.1815E+06
  29120      1    168     62      0.6000          0.1815E+06
  29121      1    168     63       1.600          0.1815E+06
  29122      1    168     64       3.600          0.1815E+06
  29123      1    168     65       5.610          0.1815E+06
  29124      1    168     66       11.64          0.1815E+06
  29125      1    168     67       7.920          0.1815E+06
  29126      1    168     68       7.170          0.1815E+06
  29127      1    168     69       8.470          0.1815E+06
  29128      1    168     70       8.600          0.1815E+06
  29129      1    168     71       8.470          0.1815E+06
  29130      1    168     72       8.640          0.1815E+06
  29131      1    168     73       8.820          0.1815E+06
  29132      1    168     74       8.280          0.1815E+06
  29133      1    168     75       8.140          0.1815E+06
  29134      1    168     76       9.470          0.1815E+06
  29135      1    168     77       8.880          0.1815E+06
  29136      1    168     78       8.570          0.1815E+06
  29137      1    168     79       8.210          0.1815E+06
  29138      1    168     80       8.310          0.1815E+06
  29139      1    168     81       9.090          0.1815E+06
  29140      1    168     82       7.690          0.1815E+06
  29141      1    168     83       12.73          0.1815E+06
  29142      1    168     84       9.180          0.1815E+06
  29143      1    168     85       8.480          0.1815E+06
  29144      1    168     86       10.10          0.1815E+06
  29145      1    168     87       7.190          0.1815E+06
  29146      1    168     88       4.700          0.1815E+06
  29147      1    168     89       4.200          0.1815E+06
  29148      1    168     90       4.200          0.1815E+06
  29149      1    168     91       4.710          0.1815E+06
  29150      1    168     92       4.710          0.1815E+06
  29151      1    168     93       3.710          0.1815E+06
  29152      1    168     94       3.720          0.1815E+06
  29153      1    168     95       3.720          0.1815E+06
  29154      1    168     96       4.720          0.1815E+06
  29155      1    168     97       4.730          0.1815E+06
  29156      1    168     98       4.730          0.1815E+06
  29157      1    168     99       4.740          0.1815E+06
  29158      1    168    100       4.740          0.1815E+06
  29159      1    168    101       4.740          0.1815E+06
  29160      1    168    102       4.750          0.1815E+06
  29161      1    168    103       4.750          0.1815E+06
  29162      1    168    104       3.760          0.1815E+06
  29163      1    168    105       4.760          0.1815E+06
  29164      1    168    106       4.770          0.1815E+06
  29165      1    168    107       4.770          0.1815E+06
  29166      1    168    108       4.770          0.1815E+06
  29167      1    168    109       4.760          0.1815E+06
  29168      1    168    110       4.760          0.1815E+06
  29169      1    168    111       5.260          0.1815E+06
  29170      1    168    112       5.750          0.1815E+06
  29171      1    168    113       5.750          0.1815E+06
  29172      1    168    114       5.750          0.1815E+06
  29173      1    168    115       6.250          0.1815E+06
  29174      1    168    116       6.740          0.1815E+06
  29175      1    168    117       6.740          0.1815E+06
  29176      1    168    118       6.730          0.1815E+06
  29177      1    168    119       6.730          0.1815E+06
  29178      1    168    120       6.730          0.1815E+06
  29179      1    168    121       6.720          0.1815E+06
  29180      1    168    122       6.730          0.1815E+06
  29181      1    168    123       6.730          0.1815E+06
  29182      1    168    124       6.730          0.1815E+06
  29183      1    168    125       7.710          0.1815E+06
  29184      1    168    126       7.710          0.1815E+06
  29185      1    168    127       8.710          0.1815E+06
  29186      1    168    128       8.710          0.1815E+06
  29187      1    168    129       7.340          0.1815E+06
  29188      1    168    130       6.630          0.1815E+06
  29189      1    168    131       6.260          0.1815E+06
  29190      1    168    132       6.070          0.1815E+06
  29191      1    168    133       7.400          0.1815E+06
  29192      1    168    134       9.270          0.1815E+06
  29193      1    168    135       10.80          0.1815E+06
  29194      1    168    136       11.64          0.1815E+06
  29195      1    168    137       12.75          0.1815E+06
  29196      1    168    138       13.97          0.1815E+06
  29197      1    168    139       16.39          0.1815E+06
  29198      1    168    140       16.70          0.1815E+06
  29199      1    168    141       17.70          0.1815E+06
  29200      1    168    142       18.20          0.1815E+06
  29201      1    168    143       18.95          0.1815E+06
  29202      1    168    144       19.87          0.1815E+06
  29203      1    168    145       21.11          0.1815E+06
  29204      1    168    146       22.37          0.1815E+06
  29205      1    168    147       21.75          0.1815E+06
  29206      1    168    148       22.18          0.1815E+06
  29207      1    168    149       21.31          0.1815E+06
  29208      1    168    150       21.42          0.1815E+06
  29209      1    168    151       20.69          0.1815E+06
  29210      1    168    152       19.77          0.1815E+06
  29211      1    168    153       19.13          0.1815E+06
  29212      1    168    154       17.23          0.1815E+06
  29213      1    168    155       14.81          0.1815E+06
  29214      1    168    156       20.25          0.1815E+06
  29215      1    168    157       21.72          0.1815E+06
  29216      1    168    158       22.01          0.1815E+06
  29217      1    168    159       22.31          0.1815E+06
  29218      1    168    160       22.37          0.1815E+06
  29219      1    168    161       22.26          0.1815E+06
  29220      1    168    162       22.90          0.1815E+06
  29221      1    168    163       22.23          0.1815E+06
  29222      1    168    164       21.79          0.1815E+06
  29223      1    168    165       20.82          0.1815E+06
  29224      1    168    166       19.61          0.1815E+06
  29225      1    168    167       15.94          0.1815E+06
  29226      1    168    168       11.14          0.1815E+06
  29227      1    168    169       11.19          0.1815E+06
  29228      1    168    170       18.84          0.1815E+06
  29229      1    168    171       22.63          0.1815E+06
  29230      1    168    172       24.11          0.1815E+06
  29231      1    168    173       26.26          0.1815E+06
  29232      1    168    174       27.52          0.1815E+06
  29233      1    169      1      -15.42          0.1815E+06
  29234      1    169      2      -15.62          0.1815E+06
  29235      1    169      3      -15.62          0.1815E+06
  29236      1    169      4      -15.92          0.1815E+06
  29237      1    169      5      -14.82          0.1815E+06
  29238      1    169      6      -14.37          0.1815E+06
  29239      1    169      7      -13.33          0.1815E+06
  29240      1    169      8      -12.76          0.1815E+06
  29241      1    169      9      -12.76          0.1815E+06
  29242      1    169     10      -12.37          0.1815E+06
  29243      1    169     11      -12.32          0.1815E+06
  29244      1    169     12      -12.40          0.1815E+06
  29245      1    169     13      -12.77          0.1815E+06
  29246      1    169     14      -13.52          0.1815E+06
  29247      1    169     15      -13.52          0.1815E+06
  29248      1    169     16      -13.42          0.1815E+06
  29249      1    169     17      -13.46          0.1815E+06
  29250      1    169     18      -13.32          0.1815E+06
  29251      1    169     19      -13.93          0.1815E+06
  29252      1    169     20      -13.83          0.1815E+06
  29253      1    169     21      -13.83          0.1815E+06
  29254      1    169     22      -13.43          0.1815E+06
  29255      1    169     23      -13.87          0.1815E+06
  29256      1    169     24      -14.03          0.1815E+06
  29257      1    169     25      -14.03          0.1815E+06
  29258      1    169     26      -14.03          0.1815E+06
  29259      1    169     27      -13.63          0.1815E+06
  29260      1    169     28      -13.24          0.1815E+06
  29261      1    169     29      -13.28          0.1815E+06
  29262      1    169     30      -13.33          0.1815E+06
  29263      1    169     31      -13.23          0.1815E+06
  29264      1    169     32      -13.23          0.1815E+06
  29265      1    169     33      -12.43          0.1815E+06
  29266      1    169     34      -12.50          0.1815E+06
  29267      1    169     35      -12.89          0.1815E+06
  29268      1    169     36      -11.92          0.1815E+06
  29269      1    169     37      -11.23          0.1815E+06
  29270      1    169     38      -11.23          0.1815E+06
  29271      1    169     39      -11.02          0.1815E+06
  29272      1    169     40      -10.22          0.1815E+06
  29273      1    169     41      -8.290          0.1815E+06
  29274      1    169     42      -7.760          0.1815E+06
  29275      1    169     43      -5.630          0.1815E+06
  29276      1    169     44      -5.630          0.1815E+06
  29277      1    169     45      -5.120          0.1815E+06
  29278      1    169     46      -4.620          0.1815E+06
  29279      1    169     47      -4.330          0.1815E+06
  29280      1    169     48      -4.020          0.1815E+06
  29281      1    169     49      -4.020          0.1815E+06
  29282      1    169     50      -3.970          0.1815E+06
  29283      1    169     51      -3.800          0.1815E+06
  29284      1    169     52      -4.220          0.1815E+06
  29285      1    169     53      -3.730          0.1815E+06
  29286      1    169     54      -3.490          0.1815E+06
  29287      1    169     55      -3.490          0.1815E+06
  29288      1    169     56      -3.160          0.1815E+06
  29289      1    169     57      -2.520          0.1815E+06
  29290      1    169     58      -2.290          0.1815E+06
  29291      1    169     59      -2.200          0.1815E+06
  29292      1    169     60      -1.780          0.1815E+06
  29293      1    169     61      -1.780          0.1815E+06
  29294      1    169     62      0.6000          0.1815E+06
  29295      1    169     63       1.600          0.1815E+06
  29296      1    169     64       3.600          0.1815E+06
  29297      1    169     65       5.610          0.1815E+06
  29298      1    169     66       11.50          0.1815E+06
  29299      1    169     67       8.280          0.1815E+06
  29300      1    169     68       7.380          0.1815E+06
  29301      1    169     69       8.230          0.1815E+06
  29302      1    169     70       8.420          0.1815E+06
  29303      1    169     71       9.510          0.1815E+06
  29304      1    169     72       8.860          0.1815E+06
  29305      1    169     73       8.230          0.1815E+06
  29306      1    169     74       7.960          0.1815E+06
  29307      1    169     75       8.630          0.1815E+06
  29308      1    169     76       10.31          0.1815E+06
  29309      1    169     77       8.890          0.1815E+06
  29310      1    169     78       7.880          0.1815E+06
  29311      1    169     79       7.880          0.1815E+06
  29312      1    169     80       7.650          0.1815E+06
  29313      1    169     81       7.670          0.1815E+06
  29314      1    169     82       8.550          0.1815E+06
  29315      1    169     83       7.730          0.1815E+06
  29316      1    169     84       10.07          0.1815E+06
  29317      1    169     85       8.020          0.1815E+06
  29318      1    169     86       11.90          0.1815E+06
  29319      1    169     87       7.190          0.1815E+06
  29320      1    169     88       4.700          0.1815E+06
  29321      1    169     89       4.200          0.1815E+06
  29322      1    169     90       4.200          0.1815E+06
  29323      1    169     91       4.710          0.1815E+06
  29324      1    169     92       4.710          0.1815E+06
  29325      1    169     93       3.710          0.1815E+06
  29326      1    169     94       3.720          0.1815E+06
  29327      1    169     95       3.720          0.1815E+06
  29328      1    169     96       4.720          0.1815E+06
  29329      1    169     97       4.730          0.1815E+06
  29330      1    169     98       4.730          0.1815E+06
  29331      1    169     99       4.740          0.1815E+06
  29332      1    169    100       4.740          0.1815E+06
  29333      1    169    101       4.740          0.1815E+06
  29334      1    169    102       4.750          0.1815E+06
  29335      1    169    103       4.750          0.1815E+06
  29336      1    169    104       3.760          0.1815E+06
  29337      1    169    105       4.760          0.1815E+06
  29338      1    169    106       4.770          0.1815E+06
  29339      1    169    107       4.770          0.1815E+06
  29340      1    169    108       4.770          0.1815E+06
  29341      1    169    109       4.760          0.1815E+06
  29342      1    169    110       4.760          0.1815E+06
  29343      1    169    111       5.260          0.1815E+06
  29344      1    169    112       5.750          0.1815E+06
  29345      1    169    113       5.750          0.1815E+06
  29346      1    169    114       5.750          0.1815E+06
  29347      1    169    115       6.250          0.1815E+06
  29348      1    169    116       6.740          0.1815E+06
  29349      1    169    117       6.740          0.1815E+06
  29350      1    169    118       6.730          0.1815E+06
  29351      1    169    119       6.730          0.1815E+06
  29352      1    169    120       6.730          0.1815E+06
  29353      1    169    121       6.720          0.1815E+06
  29354      1    169    122       6.730          0.1815E+06
  29355      1    169    123       6.730          0.1815E+06
  29356      1    169    124       6.730          0.1815E+06
  29357      1    169    125       7.710          0.1815E+06
  29358      1    169    126       7.710          0.1815E+06
  29359      1    169    127       8.710          0.1815E+06
  29360      1    169    128       8.710          0.1815E+06
  29361      1    169    129       6.360          0.1815E+06
  29362      1    169    130       6.670          0.1815E+06
  29363      1    169    131       6.510          0.1815E+06
  29364      1    169    132       7.360          0.1815E+06
  29365      1    169    133       8.930          0.1815E+06
  29366      1    169    134       9.920          0.1815E+06
  29367      1    169    135       10.78          0.1815E+06
  29368      1    169    136       11.75          0.1815E+06
  29369      1    169    137       13.11          0.1815E+06
  29370      1    169    138       13.68          0.1815E+06
  29371      1    169    139       16.04          0.1815E+06
  29372      1    169    140       17.38          0.1815E+06
  29373      1    169    141       18.20          0.1815E+06
  29374      1    169    142       18.45          0.1815E+06
  29375      1    169    143       18.82          0.1815E+06
  29376      1    169    144       19.92          0.1815E+06
  29377      1    169    145       21.51          0.1815E+06
  29378      1    169    146       22.37          0.1815E+06
  29379      1    169    147       22.73          0.1815E+06
  29380      1    169    148       22.54          0.1815E+06
  29381      1    169    149       22.17          0.1815E+06
  29382      1    169    150       22.26          0.1815E+06
  29383      1    169    151       21.37          0.1815E+06
  29384      1    169    152       20.35          0.1815E+06
  29385      1    169    153       19.22          0.1815E+06
  29386      1    169    154       16.55          0.1815E+06
  29387      1    169    155       14.15          0.1815E+06
  29388      1    169    156       19.62          0.1815E+06
  29389      1    169    157       20.59          0.1815E+06
  29390      1    169    158       20.89          0.1815E+06
  29391      1    169    159       20.25          0.1815E+06
  29392      1    169    160       21.05          0.1815E+06
  29393      1    169    161       21.38          0.1815E+06
  29394      1    169    162       20.98          0.1815E+06
  29395      1    169    163       20.76          0.1815E+06
  29396      1    169    164       20.54          0.1815E+06
  29397      1    169    165       19.07          0.1815E+06
  29398      1    169    166       17.46          0.1815E+06
  29399      1    169    167       12.64          0.1815E+06
  29400      1    169    168       9.930          0.1815E+06
  29401      1    169    169       11.43          0.1815E+06
  29402      1    169    170       19.39          0.1815E+06
  29403      1    169    171       22.35          0.1815E+06
  29404      1    169    172       23.73          0.1815E+06
  29405      1    169    173       25.05          0.1815E+06
  29406      1    169    174       25.92          0.1815E+06
  29407      1    170      1      -16.02          0.1815E+06
  29408      1    170      2      -16.32          0.1815E+06
  29409      1    170      3      -16.32          0.1815E+06
  29410      1    170      4      -15.82          0.1815E+06
  29411      1    170      5      -15.18          0.1815E+06
  29412      1    170      6      -14.37          0.1815E+06
  29413      1    170      7      -14.02          0.1815E+06
  29414      1    170      8      -12.92          0.1815E+06
  29415      1    170      9      -12.92          0.1815E+06
  29416      1    170     10      -12.62          0.1815E+06
  29417      1    170     11      -12.68          0.1815E+06
  29418      1    170     12      -12.12          0.1815E+06
  29419      1    170     13      -12.52          0.1815E+06
  29420      1    170     14      -13.52          0.1815E+06
  29421      1    170     15      -13.52          0.1815E+06
  29422      1    170     16      -13.42          0.1815E+06
  29423      1    170     17      -13.46          0.1815E+06
  29424      1    170     18      -13.32          0.1815E+06
  29425      1    170     19      -13.82          0.1815E+06
  29426      1    170     20      -14.03          0.1815E+06
  29427      1    170     21      -14.03          0.1815E+06
  29428      1    170     22      -14.53          0.1815E+06
  29429      1    170     23      -14.23          0.1815E+06
  29430      1    170     24      -13.38          0.1815E+06
  29431      1    170     25      -13.23          0.1815E+06
  29432      1    170     26      -13.23          0.1815E+06
  29433      1    170     27      -12.87          0.1815E+06
  29434      1    170     28      -12.72          0.1815E+06
  29435      1    170     29      -12.93          0.1815E+06
  29436      1    170     30      -13.33          0.1815E+06
  29437      1    170     31      -13.52          0.1815E+06
  29438      1    170     32      -13.52          0.1815E+06
  29439      1    170     33      -13.23          0.1815E+06
  29440      1    170     34      -13.10          0.1815E+06
  29441      1    170     35      -13.43          0.1815E+06
  29442      1    170     36      -12.63          0.1815E+06
  29443      1    170     37      -12.03          0.1815E+06
  29444      1    170     38      -12.03          0.1815E+06
  29445      1    170     39      -11.02          0.1815E+06
  29446      1    170     40      -10.22          0.1815E+06
  29447      1    170     41      -8.290          0.1815E+06
  29448      1    170     42      -7.760          0.1815E+06
  29449      1    170     43      -6.020          0.1815E+06
  29450      1    170     44      -6.020          0.1815E+06
  29451      1    170     45      -5.120          0.1815E+06
  29452      1    170     46      -4.820          0.1815E+06
  29453      1    170     47      -4.720          0.1815E+06
  29454      1    170     48      -4.120          0.1815E+06
  29455      1    170     49      -4.120          0.1815E+06
  29456      1    170     50      -4.250          0.1815E+06
  29457      1    170     51      -4.030          0.1815E+06
  29458      1    170     52      -4.130          0.1815E+06
  29459      1    170     53      -4.040          0.1815E+06
  29460      1    170     54      -3.930          0.1815E+06
  29461      1    170     55      -3.930          0.1815E+06
  29462      1    170     56      -3.320          0.1815E+06
  29463      1    170     57      -3.020          0.1815E+06
  29464      1    170     58      -3.000          0.1815E+06
  29465      1    170     59      -2.950          0.1815E+06
  29466      1    170     60      -1.300          0.1815E+06
  29467      1    170     61      -1.300          0.1815E+06
  29468      1    170     62      0.5900          0.1815E+06
  29469      1    170     63      0.6100          0.1815E+06
  29470      1    170     64       3.600          0.1815E+06
  29471      1    170     65       5.610          0.1815E+06
  29472      1    170     66       5.750          0.1815E+06
  29473      1    170     67       11.43          0.1815E+06
  29474      1    170     68       7.420          0.1815E+06
  29475      1    170     69       7.610          0.1815E+06
  29476      1    170     70       7.510          0.1815E+06
  29477      1    170     71       9.730          0.1815E+06
  29478      1    170     72       9.310          0.1815E+06
  29479      1    170     73       8.970          0.1815E+06
  29480      1    170     74       8.940          0.1815E+06
  29481      1    170     75       8.920          0.1815E+06
  29482      1    170     76       7.670          0.1815E+06
  29483      1    170     77       8.170          0.1815E+06
  29484      1    170     78       8.690          0.1815E+06
  29485      1    170     79       7.550          0.1815E+06
  29486      1    170     80       7.710          0.1815E+06
  29487      1    170     81       7.460          0.1815E+06
  29488      1    170     82       7.650          0.1815E+06
  29489      1    170     83       8.150          0.1815E+06
  29490      1    170     84       10.02          0.1815E+06
  29491      1    170     85       9.440          0.1815E+06
  29492      1    170     86       5.190          0.1815E+06
  29493      1    170     87       3.690          0.1815E+06
  29494      1    170     88       3.690          0.1815E+06
  29495      1    170     89       4.190          0.1815E+06
  29496      1    170     90       4.190          0.1815E+06
  29497      1    170     91       4.710          0.1815E+06
  29498      1    170     92       4.710          0.1815E+06
  29499      1    170     93       3.710          0.1815E+06
  29500      1    170     94       3.720          0.1815E+06
  29501      1    170     95       3.720          0.1815E+06
  29502      1    170     96       3.730          0.1815E+06
  29503      1    170     97       3.730          0.1815E+06
  29504      1    170     98       3.730          0.1815E+06
  29505      1    170     99       3.740          0.1815E+06
  29506      1    170    100       4.750          0.1815E+06
  29507      1    170    101       4.750          0.1815E+06
  29508      1    170    102       4.750          0.1815E+06
  29509      1    170    103       4.750          0.1815E+06
  29510      1    170    104       4.760          0.1815E+06
  29511      1    170    105       4.770          0.1815E+06
  29512      1    170    106       4.770          0.1815E+06
  29513      1    170    107       4.770          0.1815E+06
  29514      1    170    108       4.770          0.1815E+06
  29515      1    170    109       4.770          0.1815E+06
  29516      1    170    110       4.770          0.1815E+06
  29517      1    170    111       4.760          0.1815E+06
  29518      1    170    112       4.760          0.1815E+06
  29519      1    170    113       4.760          0.1815E+06
  29520      1    170    114       4.760          0.1815E+06
  29521      1    170    115       4.750          0.1815E+06
  29522      1    170    116       6.740          0.1815E+06
  29523      1    170    117       6.740          0.1815E+06
  29524      1    170    118       6.730          0.1815E+06
  29525      1    170    119       6.730          0.1815E+06
  29526      1    170    120       6.730          0.1815E+06
  29527      1    170    121       6.730          0.1815E+06
  29528      1    170    122       6.720          0.1815E+06
  29529      1    170    123       6.720          0.1815E+06
  29530      1    170    124       6.720          0.1815E+06
  29531      1    170    125       6.720          0.1815E+06
  29532      1    170    126       6.710          0.1815E+06
  29533      1    170    127       6.720          0.1815E+06
  29534      1    170    128       7.710          0.1815E+06
  29535      1    170    129       7.720          0.1815E+06
  29536      1    170    130       7.720          0.1815E+06
  29537      1    170    131       8.130          0.1815E+06
  29538      1    170    132       9.390          0.1815E+06
  29539      1    170    133       10.93          0.1815E+06
  29540      1    170    134       11.52          0.1815E+06
  29541      1    170    135       11.93          0.1815E+06
  29542      1    170    136       12.31          0.1815E+06
  29543      1    170    137       13.31          0.1815E+06
  29544      1    170    138       14.25          0.1815E+06
  29545      1    170    139       15.36          0.1815E+06
  29546      1    170    140       17.00          0.1815E+06
  29547      1    170    141       18.11          0.1815E+06
  29548      1    170    142       17.71          0.1815E+06
  29549      1    170    143       19.31          0.1815E+06
  29550      1    170    144       19.78          0.1815E+06
  29551      1    170    145       20.31          0.1815E+06
  29552      1    170    146       22.36          0.1815E+06
  29553      1    170    147       23.18          0.1815E+06
  29554      1    170    148       23.28          0.1815E+06
  29555      1    170    149       22.72          0.1815E+06
  29556      1    170    150       21.97          0.1815E+06
  29557      1    170    151       21.29          0.1815E+06
  29558      1    170    152       20.25          0.1815E+06
  29559      1    170    153       17.84          0.1815E+06
  29560      1    170    154       14.18          0.1815E+06
  29561      1    170    155       11.67          0.1815E+06
  29562      1    170    156       17.92          0.1815E+06
  29563      1    170    157       19.30          0.1815E+06
  29564      1    170    158       18.52          0.1815E+06
  29565      1    170    159       18.31          0.1815E+06
  29566      1    170    160       18.78          0.1815E+06
  29567      1    170    161       19.62          0.1815E+06
  29568      1    170    162       18.90          0.1815E+06
  29569      1    170    163       18.68          0.1815E+06
  29570      1    170    164       18.09          0.1815E+06
  29571      1    170    165       17.63          0.1815E+06
  29572      1    170    166       15.59          0.1815E+06
  29573      1    170    167       10.28          0.1815E+06
  29574      1    170    168       9.710          0.1815E+06
  29575      1    170    169       12.03          0.1815E+06
  29576      1    170    170       18.20          0.1815E+06
  29577      1    170    171       21.64          0.1815E+06
  29578      1    170    172       22.87          0.1815E+06
  29579      1    170    173       23.86          0.1815E+06
  29580      1    170    174       24.40          0.1815E+06
  29581      1    171      1      -15.33          0.1815E+06
  29582      1    171      2      -15.42          0.1815E+06
  29583      1    171      3      -15.42          0.1815E+06
  29584      1    171      4      -15.34          0.1815E+06
  29585      1    171      5      -15.22          0.1815E+06
  29586      1    171      6      -14.72          0.1815E+06
  29587      1    171      7      -14.47          0.1815E+06
  29588      1    171      8      -13.99          0.1815E+06
  29589      1    171      9      -13.99          0.1815E+06
  29590      1    171     10      -12.62          0.1815E+06
  29591      1    171     11      -12.68          0.1815E+06
  29592      1    171     12      -12.12          0.1815E+06
  29593      1    171     13      -12.52          0.1815E+06
  29594      1    171     14      -13.32          0.1815E+06
  29595      1    171     15      -13.32          0.1815E+06
  29596      1    171     16      -13.53          0.1815E+06
  29597      1    171     17      -13.32          0.1815E+06
  29598      1    171     18      -13.03          0.1815E+06
  29599      1    171     19      -13.03          0.1815E+06
  29600      1    171     20      -14.93          0.1815E+06
  29601      1    171     21      -14.93          0.1815E+06
  29602      1    171     22      -13.93          0.1815E+06
  29603      1    171     23      -13.73          0.1815E+06
  29604      1    171     24      -13.53          0.1815E+06
  29605      1    171     25      -12.70          0.1815E+06
  29606      1    171     26      -12.70          0.1815E+06
  29607      1    171     27      -12.53          0.1815E+06
  29608      1    171     28      -12.33          0.1815E+06
  29609      1    171     29      -12.73          0.1815E+06
  29610      1    171     30      -13.46          0.1815E+06
  29611      1    171     31      -13.72          0.1815E+06
  29612      1    171     32      -13.72          0.1815E+06
  29613      1    171     33      -13.83          0.1815E+06
  29614      1    171     34      -13.33          0.1815E+06
  29615      1    171     35      -13.43          0.1815E+06
  29616      1    171     36      -12.63          0.1815E+06
  29617      1    171     37      -12.03          0.1815E+06
  29618      1    171     38      -12.03          0.1815E+06
  29619      1    171     39      -11.43          0.1815E+06
  29620      1    171     40      -10.97          0.1815E+06
  29621      1    171     41      -10.10          0.1815E+06
  29622      1    171     42      -10.23          0.1815E+06
  29623      1    171     43      -8.230          0.1815E+06
  29624      1    171     44      -8.230          0.1815E+06
  29625      1    171     45      -5.930          0.1815E+06
  29626      1    171     46      -6.130          0.1815E+06
  29627      1    171     47      -5.500          0.1815E+06
  29628      1    171     48      -5.010          0.1815E+06
  29629      1    171     49      -5.010          0.1815E+06
  29630      1    171     50      -5.030          0.1815E+06
  29631      1    171     51      -4.500          0.1815E+06
  29632      1    171     52      -4.230          0.1815E+06
  29633      1    171     53      -4.330          0.1815E+06
  29634      1    171     54      -4.130          0.1815E+06
  29635      1    171     55      -4.130          0.1815E+06
  29636      1    171     56      -3.830          0.1815E+06
  29637      1    171     57      -3.730          0.1815E+06
  29638      1    171     58      -3.720          0.1815E+06
  29639      1    171     59      -2.950          0.1815E+06
  29640      1    171     60      -1.300          0.1815E+06
  29641      1    171     61      -1.300          0.1815E+06
  29642      1    171     62      0.5900          0.1815E+06
  29643      1    171     63      0.6100          0.1815E+06
  29644      1    171     64       1.610          0.1815E+06
  29645      1    171     65       6.120          0.1815E+06
  29646      1    171     66       4.170          0.1815E+06
  29647      1    171     67       10.92          0.1815E+06
  29648      1    171     68       7.940          0.1815E+06
  29649      1    171     69       7.320          0.1815E+06
  29650      1    171     70       7.440          0.1815E+06
  29651      1    171     71       9.220          0.1815E+06
  29652      1    171     72       7.960          0.1815E+06
  29653      1    171     73       7.510          0.1815E+06
  29654      1    171     74       7.210          0.1815E+06
  29655      1    171     75       8.760          0.1815E+06
  29656      1    171     76       8.650          0.1815E+06
  29657      1    171     77       6.510          0.1815E+06
  29658      1    171     78       9.030          0.1815E+06
  29659      1    171     79       9.100          0.1815E+06
  29660      1    171     80       8.100          0.1815E+06
  29661      1    171     81       7.480          0.1815E+06
  29662      1    171     82       7.460          0.1815E+06
  29663      1    171     83       7.480          0.1815E+06
  29664      1    171     84       8.810          0.1815E+06
  29665      1    171     85       7.920          0.1815E+06
  29666      1    171     86       5.190          0.1815E+06
  29667      1    171     87       3.690          0.1815E+06
  29668      1    171     88       3.690          0.1815E+06
  29669      1    171     89       4.190          0.1815E+06
  29670      1    171     90       4.190          0.1815E+06
  29671      1    171     91       3.710          0.1815E+06
  29672      1    171     92       3.710          0.1815E+06
  29673      1    171     93       3.710          0.1815E+06
  29674      1    171     94       3.720          0.1815E+06
  29675      1    171     95       3.720          0.1815E+06
  29676      1    171     96       3.730          0.1815E+06
  29677      1    171     97       3.730          0.1815E+06
  29678      1    171     98       3.740          0.1815E+06
  29679      1    171     99       3.740          0.1815E+06
  29680      1    171    100       4.740          0.1815E+06
  29681      1    171    101       4.740          0.1815E+06
  29682      1    171    102       3.760          0.1815E+06
  29683      1    171    103       3.760          0.1815E+06
  29684      1    171    104       4.760          0.1815E+06
  29685      1    171    105       4.770          0.1815E+06
  29686      1    171    106       4.770          0.1815E+06
  29687      1    171    107       4.770          0.1815E+06
  29688      1    171    108       4.770          0.1815E+06
  29689      1    171    109       4.770          0.1815E+06
  29690      1    171    110       4.770          0.1815E+06
  29691      1    171    111       4.760          0.1815E+06
  29692      1    171    112       4.760          0.1815E+06
  29693      1    171    113       4.760          0.1815E+06
  29694      1    171    114       4.760          0.1815E+06
  29695      1    171    115       5.740          0.1815E+06
  29696      1    171    116       6.740          0.1815E+06
  29697      1    171    117       6.740          0.1815E+06
  29698      1    171    118       5.730          0.1815E+06
  29699      1    171    119       5.730          0.1815E+06
  29700      1    171    120       5.730          0.1815E+06
  29701      1    171    121       5.730          0.1815E+06
  29702      1    171    122       5.730          0.1815E+06
  29703      1    171    123       5.730          0.1815E+06
  29704      1    171    124       5.730          0.1815E+06
  29705      1    171    125       5.720          0.1815E+06
  29706      1    171    126       5.720          0.1815E+06
  29707      1    171    127       5.710          0.1815E+06
  29708      1    171    128       6.710          0.1815E+06
  29709      1    171    129       7.710          0.1815E+06
  29710      1    171    130       7.710          0.1815E+06
  29711      1    171    131       7.710          0.1815E+06
  29712      1    171    132       9.560          0.1815E+06
  29713      1    171    133       12.64          0.1815E+06
  29714      1    171    134       13.51          0.1815E+06
  29715      1    171    135       12.90          0.1815E+06
  29716      1    171    136       12.94          0.1815E+06
  29717      1    171    137       13.36          0.1815E+06
  29718      1    171    138       13.89          0.1815E+06
  29719      1    171    139       15.00          0.1815E+06
  29720      1    171    140       16.02          0.1815E+06
  29721      1    171    141       17.54          0.1815E+06
  29722      1    171    142       18.29          0.1815E+06
  29723      1    171    143       19.02          0.1815E+06
  29724      1    171    144       19.79          0.1815E+06
  29725      1    171    145       20.50          0.1815E+06
  29726      1    171    146       21.78          0.1815E+06
  29727      1    171    147       23.36          0.1815E+06
  29728      1    171    148       23.36          0.1815E+06
  29729      1    171    149       22.72          0.1815E+06
  29730      1    171    150       21.73          0.1815E+06
  29731      1    171    151       21.21          0.1815E+06
  29732      1    171    152       20.50          0.1815E+06
  29733      1    171    153       18.90          0.1815E+06
  29734      1    171    154       17.26          0.1815E+06
  29735      1    171    155       11.47          0.1815E+06
  29736      1    171    156       13.26          0.1815E+06
  29737      1    171    157       17.34          0.1815E+06
  29738      1    171    158       16.95          0.1815E+06
  29739      1    171    159       16.48          0.1815E+06
  29740      1    171    160       17.20          0.1815E+06
  29741      1    171    161       17.51          0.1815E+06
  29742      1    171    162       17.42          0.1815E+06
  29743      1    171    163       17.28          0.1815E+06
  29744      1    171    164       17.17          0.1815E+06
  29745      1    171    165       16.92          0.1815E+06
  29746      1    171    166       15.98          0.1815E+06
  29747      1    171    167       9.640          0.1815E+06
  29748      1    171    168       9.000          0.1815E+06
  29749      1    171    169       11.25          0.1815E+06
  29750      1    171    170       17.23          0.1815E+06
  29751      1    171    171       20.31          0.1815E+06
  29752      1    171    172       21.87          0.1815E+06
  29753      1    171    173       23.32          0.1815E+06
  29754      1    171    174       23.23          0.1815E+06
  29755      1    172      1      -14.62          0.1815E+06
  29756      1    172      2      -14.43          0.1815E+06
  29757      1    172      3      -14.43          0.1815E+06
  29758      1    172      4      -14.82          0.1815E+06
  29759      1    172      5      -15.22          0.1815E+06
  29760      1    172      6      -14.72          0.1815E+06
  29761      1    172      7      -14.47          0.1815E+06
  29762      1    172      8      -13.99          0.1815E+06
  29763      1    172      9      -13.99          0.1815E+06
  29764      1    172     10      -14.02          0.1815E+06
  29765      1    172     11      -13.22          0.1815E+06
  29766      1    172     12      -11.32          0.1815E+06
  29767      1    172     13      -11.98          0.1815E+06
  29768      1    172     14      -13.07          0.1815E+06
  29769      1    172     15      -13.07          0.1815E+06
  29770      1    172     16      -13.93          0.1815E+06
  29771      1    172     17      -14.93          0.1815E+06
  29772      1    172     18      -15.63          0.1815E+06
  29773      1    172     19      -15.13          0.1815E+06
  29774      1    172     20      -14.03          0.1815E+06
  29775      1    172     21      -14.03          0.1815E+06
  29776      1    172     22      -14.03          0.1815E+06
  29777      1    172     23      -13.83          0.1815E+06
  29778      1    172     24      -13.53          0.1815E+06
  29779      1    172     25      -12.83          0.1815E+06
  29780      1    172     26      -12.83          0.1815E+06
  29781      1    172     27      -12.73          0.1815E+06
  29782      1    172     28      -12.65          0.1815E+06
  29783      1    172     29      -13.17          0.1815E+06
  29784      1    172     30      -13.85          0.1815E+06
  29785      1    172     31      -13.72          0.1815E+06
  29786      1    172     32      -13.72          0.1815E+06
  29787      1    172     33      -13.83          0.1815E+06
  29788      1    172     34      -13.33          0.1815E+06
  29789      1    172     35      -13.33          0.1815E+06
  29790      1    172     36      -13.03          0.1815E+06
  29791      1    172     37      -12.63          0.1815E+06
  29792      1    172     38      -12.63          0.1815E+06
  29793      1    172     39      -12.43          0.1815E+06
  29794      1    172     40      -11.83          0.1815E+06
  29795      1    172     41      -10.83          0.1815E+06
  29796      1    172     42      -10.41          0.1815E+06
  29797      1    172     43      -9.030          0.1815E+06
  29798      1    172     44      -9.030          0.1815E+06
  29799      1    172     45      -6.330          0.1815E+06
  29800      1    172     46      -6.970          0.1815E+06
  29801      1    172     47      -6.030          0.1815E+06
  29802      1    172     48      -5.830          0.1815E+06
  29803      1    172     49      -5.830          0.1815E+06
  29804      1    172     50      -5.960          0.1815E+06
  29805      1    172     51      -5.230          0.1815E+06
  29806      1    172     52      -4.630          0.1815E+06
  29807      1    172     53      -4.770          0.1815E+06
  29808      1    172     54      -4.130          0.1815E+06
  29809      1    172     55      -4.130          0.1815E+06
  29810      1    172     56      -3.830          0.1815E+06
  29811      1    172     57      -3.730          0.1815E+06
  29812      1    172     58      -3.720          0.1815E+06
  29813      1    172     59      -3.730          0.1815E+06
  29814      1    172     60      -2.920          0.1815E+06
  29815      1    172     61      -2.920          0.1815E+06
  29816      1    172     62     -0.6200          0.1815E+06
  29817      1    172     63      0.6000          0.1815E+06
  29818      1    172     64      0.6000          0.1815E+06
  29819      1    172     65       4.620          0.1815E+06
  29820      1    172     66       7.620          0.1815E+06
  29821      1    172     67       7.620          0.1815E+06
  29822      1    172     68       9.480          0.1815E+06
  29823      1    172     69       8.340          0.1815E+06
  29824      1    172     70       9.030          0.1815E+06
  29825      1    172     71       7.710          0.1815E+06
  29826      1    172     72       7.510          0.1815E+06
  29827      1    172     73       7.070          0.1815E+06
  29828      1    172     74       7.710          0.1815E+06
  29829      1    172     75       7.760          0.1815E+06
  29830      1    172     76       9.310          0.1815E+06
  29831      1    172     77       7.710          0.1815E+06
  29832      1    172     78       7.650          0.1815E+06
  29833      1    172     79       8.070          0.1815E+06
  29834      1    172     80       10.38          0.1815E+06
  29835      1    172     81       6.940          0.1815E+06
  29836      1    172     82       7.170          0.1815E+06
  29837      1    172     83       6.690          0.1815E+06
  29838      1    172     84       10.94          0.1815E+06
  29839      1    172     85       5.690          0.1815E+06
  29840      1    172     86       2.690          0.1815E+06
  29841      1    172     87       3.690          0.1815E+06
  29842      1    172     88       4.700          0.1815E+06
  29843      1    172     89       4.700          0.1815E+06
  29844      1    172     90       4.700          0.1815E+06
  29845      1    172     91       3.700          0.1815E+06
  29846      1    172     92       3.720          0.1815E+06
  29847      1    172     93       3.720          0.1815E+06
  29848      1    172     94       3.720          0.1815E+06
  29849      1    172     95       3.720          0.1815E+06
  29850      1    172     96       4.720          0.1815E+06
  29851      1    172     97       4.730          0.1815E+06
  29852      1    172     98       4.730          0.1815E+06
  29853      1    172     99       4.740          0.1815E+06
  29854      1    172    100       3.750          0.1815E+06
  29855      1    172    101       3.750          0.1815E+06
  29856      1    172    102       3.750          0.1815E+06
  29857      1    172    103       3.760          0.1815E+06
  29858      1    172    104       4.770          0.1815E+06
  29859      1    172    105       4.770          0.1815E+06
  29860      1    172    106       4.770          0.1815E+06
  29861      1    172    107       4.770          0.1815E+06
  29862      1    172    108       4.770          0.1815E+06
  29863      1    172    109       4.770          0.1815E+06
  29864      1    172    110       4.770          0.1815E+06
  29865      1    172    111       4.760          0.1815E+06
  29866      1    172    112       4.760          0.1815E+06
  29867      1    172    113       4.760          0.1815E+06
  29868      1    172    114       4.760          0.1815E+06
  29869      1    172    115       3.750          0.1815E+06
  29870      1    172    116       4.740          0.1815E+06
  29871      1    172    117       4.750          0.1815E+06
  29872      1    172    118       5.230          0.1815E+06
  29873      1    172    119       5.230          0.1815E+06
  29874      1    172    120       5.740          0.1815E+06
  29875      1    172    121       5.730          0.1815E+06
  29876      1    172    122       5.720          0.1815E+06
  29877      1    172    123       5.730          0.1815E+06
  29878      1    172    124       5.730          0.1815E+06
  29879      1    172    125       6.720          0.1815E+06
  29880      1    172    126       5.720          0.1815E+06
  29881      1    172    127       5.720          0.1815E+06
  29882      1    172    128       6.710          0.1815E+06
  29883      1    172    129       6.710          0.1815E+06
  29884      1    172    130       6.710          0.1815E+06
  29885      1    172    131       6.700          0.1815E+06
  29886      1    172    132       11.81          0.1815E+06
  29887      1    172    133       12.97          0.1815E+06
  29888      1    172    134       14.78          0.1815E+06
  29889      1    172    135       14.39          0.1815E+06
  29890      1    172    136       13.85          0.1815E+06
  29891      1    172    137       13.76          0.1815E+06
  29892      1    172    138       13.23          0.1815E+06
  29893      1    172    139       13.27          0.1815E+06
  29894      1    172    140       14.98          0.1815E+06
  29895      1    172    141       17.09          0.1815E+06
  29896      1    172    142       17.59          0.1815E+06
  29897      1    172    143       17.61          0.1815E+06
  29898      1    172    144       18.23          0.1815E+06
  29899      1    172    145       19.43          0.1815E+06
  29900      1    172    146       20.69          0.1815E+06
  29901      1    172    147       22.71          0.1815E+06
  29902      1    172    148       23.04          0.1815E+06
  29903      1    172    149       23.10          0.1815E+06
  29904      1    172    150       22.55          0.1815E+06
  29905      1    172    151       21.72          0.1815E+06
  29906      1    172    152       20.87          0.1815E+06
  29907      1    172    153       19.48          0.1815E+06
  29908      1    172    154       18.07          0.1815E+06
  29909      1    172    155       15.77          0.1815E+06
  29910      1    172    156       11.31          0.1815E+06
  29911      1    172    157       10.02          0.1815E+06
  29912      1    172    158       14.36          0.1815E+06
  29913      1    172    159       13.21          0.1815E+06
  29914      1    172    160       15.39          0.1815E+06
  29915      1    172    161       16.63          0.1815E+06
  29916      1    172    162       16.80          0.1815E+06
  29917      1    172    163       16.37          0.1815E+06
  29918      1    172    164       15.77          0.1815E+06
  29919      1    172    165       15.68          0.1815E+06
  29920      1    172    166       11.06          0.1815E+06
  29921      1    172    167       8.970          0.1815E+06
  29922      1    172    168       8.920          0.1815E+06
  29923      1    172    169       10.72          0.1815E+06
  29924      1    172    170       18.06          0.1815E+06
  29925      1    172    171       19.23          0.1815E+06
  29926      1    172    172       21.18          0.1815E+06
  29927      1    172    173       21.28          0.1815E+06
  29928      1    172    174       20.93          0.1815E+06
  29929      1    173      1      -14.62          0.1815E+06
  29930      1    173      2      -14.43          0.1815E+06
  29931      1    173      3      -14.43          0.1815E+06
  29932      1    173      4      -14.82          0.1815E+06
  29933      1    173      5      -15.70          0.1815E+06
  29934      1    173      6      -15.92          0.1815E+06
  29935      1    173      7      -15.12          0.1815E+06
  29936      1    173      8      -14.52          0.1815E+06
  29937      1    173      9      -14.52          0.1815E+06
  29938      1    173     10      -13.51          0.1815E+06
  29939      1    173     11      -12.74          0.1815E+06
  29940      1    173     12      -11.45          0.1815E+06
  29941      1    173     13      -11.88          0.1815E+06
  29942      1    173     14      -13.12          0.1815E+06
  29943      1    173     15      -13.12          0.1815E+06
  29944      1    173     16      -13.63          0.1815E+06
  29945      1    173     17      -14.43          0.1815E+06
  29946      1    173     18      -14.43          0.1815E+06
  29947      1    173     19      -14.23          0.1815E+06
  29948      1    173     20      -14.28          0.1815E+06
  29949      1    173     21      -14.28          0.1815E+06
  29950      1    173     22      -14.03          0.1815E+06
  29951      1    173     23      -14.03          0.1815E+06
  29952      1    173     24      -13.73          0.1815E+06
  29953      1    173     25      -12.83          0.1815E+06
  29954      1    173     26      -12.83          0.1815E+06
  29955      1    173     27      -12.73          0.1815E+06
  29956      1    173     28      -12.65          0.1815E+06
  29957      1    173     29      -13.17          0.1815E+06
  29958      1    173     30      -14.23          0.1815E+06
  29959      1    173     31      -13.63          0.1815E+06
  29960      1    173     32      -13.63          0.1815E+06
  29961      1    173     33      -13.83          0.1815E+06
  29962      1    173     34      -13.83          0.1815E+06
  29963      1    173     35      -13.67          0.1815E+06
  29964      1    173     36      -13.33          0.1815E+06
  29965      1    173     37      -13.03          0.1815E+06
  29966      1    173     38      -13.03          0.1815E+06
  29967      1    173     39      -13.23          0.1815E+06
  29968      1    173     40      -12.19          0.1815E+06
  29969      1    173     41      -11.52          0.1815E+06
  29970      1    173     42      -10.63          0.1815E+06
  29971      1    173     43      -9.830          0.1815E+06
  29972      1    173     44      -9.830          0.1815E+06
  29973      1    173     45      -8.710          0.1815E+06
  29974      1    173     46      -8.630          0.1815E+06
  29975      1    173     47      -6.630          0.1815E+06
  29976      1    173     48      -6.750          0.1815E+06
  29977      1    173     49      -6.750          0.1815E+06
  29978      1    173     50      -6.730          0.1815E+06
  29979      1    173     51      -5.230          0.1815E+06
  29980      1    173     52      -4.630          0.1815E+06
  29981      1    173     53      -4.770          0.1815E+06
  29982      1    173     54      -4.430          0.1815E+06
  29983      1    173     55      -4.430          0.1815E+06
  29984      1    173     56      -4.230          0.1815E+06
  29985      1    173     57      -4.230          0.1815E+06
  29986      1    173     58      -4.470          0.1815E+06
  29987      1    173     59      -4.200          0.1815E+06
  29988      1    173     60      -3.220          0.1815E+06
  29989      1    173     61      -3.220          0.1815E+06
  29990      1    173     62      -1.110          0.1815E+06
  29991      1    173     63      0.1700          0.1815E+06
  29992      1    173     64      0.6100          0.1815E+06
  29993      1    173     65       3.110          0.1815E+06
  29994      1    173     66       5.620          0.1815E+06
  29995      1    173     67       5.620          0.1815E+06
  29996      1    173     68       10.14          0.1815E+06
  29997      1    173     69       8.840          0.1815E+06
  29998      1    173     70       7.690          0.1815E+06
  29999      1    173     71       7.860          0.1815E+06
  30000      1    173     72       7.800          0.1815E+06
  30001      1    173     73       8.440          0.1815E+06
  30002      1    173     74       7.420          0.1815E+06
  30003      1    173     75       6.880          0.1815E+06
  30004      1    173     76       7.800          0.1815E+06
  30005      1    173     77       7.840          0.1815E+06
  30006      1    173     78       11.85          0.1815E+06
  30007      1    173     79       7.960          0.1815E+06
  30008      1    173     80       8.480          0.1815E+06
  30009      1    173     81       6.570          0.1815E+06
  30010      1    173     82       7.210          0.1815E+06
  30011      1    173     83       6.760          0.1815E+06
  30012      1    173     84       6.050          0.1815E+06
  30013      1    173     85       3.680          0.1815E+06
  30014      1    173     86       3.690          0.1815E+06
  30015      1    173     87       4.690          0.1815E+06
  30016      1    173     88       4.700          0.1815E+06
  30017      1    173     89       3.700          0.1815E+06
  30018      1    173     90       3.700          0.1815E+06
  30019      1    173     91       3.710          0.1815E+06
  30020      1    173     92       4.710          0.1815E+06
  30021      1    173     93       4.710          0.1815E+06
  30022      1    173     94       4.720          0.1815E+06
  30023      1    173     95       4.720          0.1815E+06
  30024      1    173     96       4.730          0.1815E+06
  30025      1    173     97       4.730          0.1815E+06
  30026      1    173     98       4.730          0.1815E+06
  30027      1    173     99       4.740          0.1815E+06
  30028      1    173    100       4.750          0.1815E+06
  30029      1    173    101       4.750          0.1815E+06
  30030      1    173    102       3.750          0.1815E+06
  30031      1    173    103       3.760          0.1815E+06
  30032      1    173    104       4.770          0.1815E+06
  30033      1    173    105       4.770          0.1815E+06
  30034      1    173    106       4.770          0.1815E+06
  30035      1    173    107       4.770          0.1815E+06
  30036      1    173    108       4.780          0.1815E+06
  30037      1    173    109       4.770          0.1815E+06
  30038      1    173    110       3.760          0.1815E+06
  30039      1    173    111       3.770          0.1815E+06
  30040      1    173    112       3.770          0.1815E+06
  30041      1    173    113       3.770          0.1815E+06
  30042      1    173    114       4.750          0.1815E+06
  30043      1    173    115       3.750          0.1815E+06
  30044      1    173    116       3.750          0.1815E+06
  30045      1    173    117       3.740          0.1815E+06
  30046      1    173    118       4.270          0.1815E+06
  30047      1    173    119       4.270          0.1815E+06
  30048      1    173    120       5.730          0.1815E+06
  30049      1    173    121       5.730          0.1815E+06
  30050      1    173    122       5.730          0.1815E+06
  30051      1    173    123       6.720          0.1815E+06
  30052      1    173    124       6.720          0.1815E+06
  30053      1    173    125       6.720          0.1815E+06
  30054      1    173    126       5.720          0.1815E+06
  30055      1    173    127       5.720          0.1815E+06
  30056      1    173    128       6.710          0.1815E+06
  30057      1    173    129       6.710          0.1815E+06
  30058      1    173    130       6.710          0.1815E+06
  30059      1    173    131       6.700          0.1815E+06
  30060      1    173    132       7.710          0.1815E+06
  30061      1    173    133       11.10          0.1815E+06
  30062      1    173    134       13.94          0.1815E+06
  30063      1    173    135       14.78          0.1815E+06
  30064      1    173    136       14.22          0.1815E+06
  30065      1    173    137       13.31          0.1815E+06
  30066      1    173    138       11.59          0.1815E+06
  30067      1    173    139       14.53          0.1815E+06
  30068      1    173    140       15.43          0.1815E+06
  30069      1    173    141       15.68          0.1815E+06
  30070      1    173    142       14.48          0.1815E+06
  30071      1    173    143       14.81          0.1815E+06
  30072      1    173    144       16.37          0.1815E+06
  30073      1    173    145       18.62          0.1815E+06
  30074      1    173    146       19.56          0.1815E+06
  30075      1    173    147       21.04          0.1815E+06
  30076      1    173    148       21.95          0.1815E+06
  30077      1    173    149       22.52          0.1815E+06
  30078      1    173    150       22.71          0.1815E+06
  30079      1    173    151       21.95          0.1815E+06
  30080      1    173    152       21.39          0.1815E+06
  30081      1    173    153       19.37          0.1815E+06
  30082      1    173    154       18.06          0.1815E+06
  30083      1    173    155       16.92          0.1815E+06
  30084      1    173    156       14.77          0.1815E+06
  30085      1    173    157       10.06          0.1815E+06
  30086      1    173    158       9.150          0.1815E+06
  30087      1    173    159       8.220          0.1815E+06
  30088      1    173    160       14.93          0.1815E+06
  30089      1    173    161       16.00          0.1815E+06
  30090      1    173    162       16.14          0.1815E+06
  30091      1    173    163       15.53          0.1815E+06
  30092      1    173    164       14.73          0.1815E+06
  30093      1    173    165       15.63          0.1815E+06
  30094      1    173    166       13.59          0.1815E+06
  30095      1    173    167       8.310          0.1815E+06
  30096      1    173    168       8.430          0.1815E+06
  30097      1    173    169       12.35          0.1815E+06
  30098      1    173    170       17.47          0.1815E+06
  30099      1    173    171       16.46          0.1815E+06
  30100      1    173    172       18.28          0.1815E+06
  30101      1    173    173       19.12          0.1815E+06
  30102      1    173    174       17.70          0.1815E+06
  30103      1    174      1      -14.53          0.1815E+06
  30104      1    174      2      -14.38          0.1815E+06
  30105      1    174      3      -14.38          0.1815E+06
  30106      1    174      4      -14.59          0.1815E+06
  30107      1    174      5      -15.33          0.1815E+06
  30108      1    174      6      -15.82          0.1815E+06
  30109      1    174      7      -15.17          0.1815E+06
  30110      1    174      8      -14.70          0.1815E+06
  30111      1    174      9      -14.70          0.1815E+06
  30112      1    174     10      -13.41          0.1815E+06
  30113      1    174     11      -12.47          0.1815E+06
  30114      1    174     12      -11.32          0.1815E+06
  30115      1    174     13      -11.53          0.1815E+06
  30116      1    174     14      -12.88          0.1815E+06
  30117      1    174     15      -12.88          0.1815E+06
  30118      1    174     16      -12.73          0.1815E+06
  30119      1    174     17      -13.63          0.1815E+06
  30120      1    174     18      -14.03          0.1815E+06
  30121      1    174     19      -14.19          0.1815E+06
  30122      1    174     20      -14.28          0.1815E+06
  30123      1    174     21      -14.28          0.1815E+06
  30124      1    174     22      -14.03          0.1815E+06
  30125      1    174     23      -14.03          0.1815E+06
  30126      1    174     24      -13.73          0.1815E+06
  30127      1    174     25      -13.53          0.1815E+06
  30128      1    174     26      -13.53          0.1815E+06
  30129      1    174     27      -13.13          0.1815E+06
  30130      1    174     28      -13.03          0.1815E+06
  30131      1    174     29      -13.58          0.1815E+06
  30132      1    174     30      -13.93          0.1815E+06
  30133      1    174     31      -14.43          0.1815E+06
  30134      1    174     32      -14.43          0.1815E+06
  30135      1    174     33      -14.43          0.1815E+06
  30136      1    174     34      -14.39          0.1815E+06
  30137      1    174     35      -14.23          0.1815E+06
  30138      1    174     36      -13.74          0.1815E+06
  30139      1    174     37      -13.63          0.1815E+06
  30140      1    174     38      -13.63          0.1815E+06
  30141      1    174     39      -13.63          0.1815E+06
  30142      1    174     40      -12.83          0.1815E+06
  30143      1    174     41      -12.53          0.1815E+06
  30144      1    174     42      -11.94          0.1815E+06
  30145      1    174     43      -11.54          0.1815E+06
  30146      1    174     44      -11.54          0.1815E+06
  30147      1    174     45      -10.43          0.1815E+06
  30148      1    174     46      -8.630          0.1815E+06
  30149      1    174     47      -6.630          0.1815E+06
  30150      1    174     48      -6.750          0.1815E+06
  30151      1    174     49      -6.750          0.1815E+06
  30152      1    174     50      -6.730          0.1815E+06
  30153      1    174     51      -5.930          0.1815E+06
  30154      1    174     52      -4.230          0.1815E+06
  30155      1    174     53      -5.330          0.1815E+06
  30156      1    174     54      -5.130          0.1815E+06
  30157      1    174     55      -5.130          0.1815E+06
  30158      1    174     56      -4.330          0.1815E+06
  30159      1    174     57      -3.530          0.1815E+06
  30160      1    174     58      -4.830          0.1815E+06
  30161      1    174     59      -3.500          0.1815E+06
  30162      1    174     60      -2.340          0.1815E+06
  30163      1    174     61      -2.340          0.1815E+06
  30164      1    174     62     -0.4600          0.1815E+06
  30165      1    174     63      0.3200          0.1815E+06
  30166      1    174     64      0.6100          0.1815E+06
  30167      1    174     65       2.110          0.1815E+06
  30168      1    174     66       3.620          0.1815E+06
  30169      1    174     67       3.620          0.1815E+06
  30170      1    174     68       6.120          0.1815E+06
  30171      1    174     69       10.88          0.1815E+06
  30172      1    174     70       8.820          0.1815E+06
  30173      1    174     71       7.690          0.1815E+06
  30174      1    174     72       7.150          0.1815E+06
  30175      1    174     73       7.170          0.1815E+06
  30176      1    174     74       7.110          0.1815E+06
  30177      1    174     75       7.440          0.1815E+06
  30178      1    174     76       7.730          0.1815E+06
  30179      1    174     77       7.670          0.1815E+06
  30180      1    174     78       6.840          0.1815E+06
  30181      1    174     79       9.520          0.1815E+06
  30182      1    174     80       9.220          0.1815E+06
  30183      1    174     81       6.570          0.1815E+06
  30184      1    174     82       6.760          0.1815E+06
  30185      1    174     83       7.980          0.1815E+06
  30186      1    174     84       5.210          0.1815E+06
  30187      1    174     85       3.690          0.1815E+06
  30188      1    174     86       3.690          0.1815E+06
  30189      1    174     87       4.690          0.1815E+06
  30190      1    174     88       4.690          0.1815E+06
  30191      1    174     89       4.700          0.1815E+06
  30192      1    174     90       4.700          0.1815E+06
  30193      1    174     91       4.710          0.1815E+06
  30194      1    174     92       4.710          0.1815E+06
  30195      1    174     93       4.710          0.1815E+06
  30196      1    174     94       4.720          0.1815E+06
  30197      1    174     95       4.720          0.1815E+06
  30198      1    174     96       4.720          0.1815E+06
  30199      1    174     97       4.730          0.1815E+06
  30200      1    174     98       4.730          0.1815E+06
  30201      1    174     99       4.740          0.1815E+06
  30202      1    174    100       4.750          0.1815E+06
  30203      1    174    101       4.750          0.1815E+06
  30204      1    174    102       4.750          0.1815E+06
  30205      1    174    103       4.760          0.1815E+06
  30206      1    174    104       4.760          0.1815E+06
  30207      1    174    105       4.770          0.1815E+06
  30208      1    174    106       4.770          0.1815E+06
  30209      1    174    107       4.770          0.1815E+06
  30210      1    174    108       4.770          0.1815E+06
  30211      1    174    109       3.770          0.1815E+06
  30212      1    174    110       3.770          0.1815E+06
  30213      1    174    111       3.760          0.1815E+06
  30214      1    174    112       3.760          0.1815E+06
  30215      1    174    113       3.760          0.1815E+06
  30216      1    174    114       3.750          0.1815E+06
  30217      1    174    115       3.750          0.1815E+06
  30218      1    174    116       3.740          0.1815E+06
  30219      1    174    117       3.750          0.1815E+06
  30220      1    174    118       3.740          0.1815E+06
  30221      1    174    119       3.740          0.1815E+06
  30222      1    174    120       4.740          0.1815E+06
  30223      1    174    121       5.730          0.1815E+06
  30224      1    174    122       5.730          0.1815E+06
  30225      1    174    123       6.720          0.1815E+06
  30226      1    174    124       6.720          0.1815E+06
  30227      1    174    125       6.720          0.1815E+06
  30228      1    174    126       5.720          0.1815E+06
  30229      1    174    127       5.710          0.1815E+06
  30230      1    174    128       6.720          0.1815E+06
  30231      1    174    129       6.710          0.1815E+06
  30232      1    174    130       6.710          0.1815E+06
  30233      1    174    131       6.700          0.1815E+06
  30234      1    174    132       5.710          0.1815E+06
  30235      1    174    133       6.710          0.1815E+06
  30236      1    174    134       11.72          0.1815E+06
  30237      1    174    135       12.52          0.1815E+06
  30238      1    174    136       12.56          0.1815E+06
  30239      1    174    137       11.56          0.1815E+06
  30240      1    174    138       11.59          0.1815E+06
  30241      1    174    139       13.72          0.1815E+06
  30242      1    174    140       13.61          0.1815E+06
  30243      1    174    141       13.97          0.1815E+06
  30244      1    174    142       12.39          0.1815E+06
  30245      1    174    143       16.21          0.1815E+06
  30246      1    174    144       15.68          0.1815E+06
  30247      1    174    145       17.61          0.1815E+06
  30248      1    174    146       18.60          0.1815E+06
  30249      1    174    147       18.90          0.1815E+06
  30250      1    174    148       19.90          0.1815E+06
  30251      1    174    149       20.44          0.1815E+06
  30252      1    174    150       20.54          0.1815E+06
  30253      1    174    151       20.13          0.1815E+06
  30254      1    174    152       20.36          0.1815E+06
  30255      1    174    153       19.20          0.1815E+06
  30256      1    174    154       17.78          0.1815E+06
  30257      1    174    155       16.36          0.1815E+06
  30258      1    174    156       14.93          0.1815E+06
  30259      1    174    157       12.73          0.1815E+06
  30260      1    174    158       10.96          0.1815E+06
  30261      1    174    159       8.190          0.1815E+06
  30262      1    174    160       10.06          0.1815E+06
  30263      1    174    161       14.92          0.1815E+06
  30264      1    174    162       14.02          0.1815E+06
  30265      1    174    163       10.27          0.1815E+06
  30266      1    174    164       13.80          0.1815E+06
  30267      1    174    165       14.97          0.1815E+06
  30268      1    174    166       12.72          0.1815E+06
  30269      1    174    167       8.460          0.1815E+06
  30270      1    174    168       8.720          0.1815E+06
  30271      1    174    169       11.18          0.1815E+06
  30272      1    174    170       15.22          0.1815E+06
  30273      1    174    171       16.17          0.1815E+06
  30274      1    174    172       16.95          0.1815E+06
  30275      1    174    173       17.54          0.1815E+06
  30276      1    174    174       17.48          0.1815E+06
  30277      1    175      1      -14.53          0.1815E+06
  30278      1    175      2      -14.38          0.1815E+06
  30279      1    175      3      -14.38          0.1815E+06
  30280      1    175      4      -14.59          0.1815E+06
  30281      1    175      5      -15.33          0.1815E+06
  30282      1    175      6      -15.82          0.1815E+06
  30283      1    175      7      -15.17          0.1815E+06
  30284      1    175      8      -14.70          0.1815E+06
  30285      1    175      9      -14.70          0.1815E+06
  30286      1    175     10      -13.41          0.1815E+06
  30287      1    175     11      -12.47          0.1815E+06
  30288      1    175     12      -11.32          0.1815E+06
  30289      1    175     13      -11.53          0.1815E+06
  30290      1    175     14      -12.88          0.1815E+06
  30291      1    175     15      -12.88          0.1815E+06
  30292      1    175     16      -12.73          0.1815E+06
  30293      1    175     17      -13.63          0.1815E+06
  30294      1    175     18      -14.03          0.1815E+06
  30295      1    175     19      -14.19          0.1815E+06
  30296      1    175     20      -14.28          0.1815E+06
  30297      1    175     21      -14.28          0.1815E+06
  30298      1    175     22      -14.03          0.1815E+06
  30299      1    175     23      -14.03          0.1815E+06
  30300      1    175     24      -13.73          0.1815E+06
  30301      1    175     25      -13.53          0.1815E+06
  30302      1    175     26      -13.53          0.1815E+06
  30303      1    175     27      -13.13          0.1815E+06
  30304      1    175     28      -13.03          0.1815E+06
  30305      1    175     29      -13.58          0.1815E+06
  30306      1    175     30      -13.93          0.1815E+06
  30307      1    175     31      -14.43          0.1815E+06
  30308      1    175     32      -14.43          0.1815E+06
  30309      1    175     33      -14.43          0.1815E+06
  30310      1    175     34      -14.39          0.1815E+06
  30311      1    175     35      -14.23          0.1815E+06
  30312      1    175     36      -13.74          0.1815E+06
  30313      1    175     37      -13.63          0.1815E+06
  30314      1    175     38      -13.63          0.1815E+06
  30315      1    175     39      -13.63          0.1815E+06
  30316      1    175     40      -12.83          0.1815E+06
  30317      1    175     41      -12.53          0.1815E+06
  30318      1    175     42      -11.94          0.1815E+06
  30319      1    175     43      -11.54          0.1815E+06
  30320      1    175     44      -11.54          0.1815E+06
  30321      1    175     45      -10.43          0.1815E+06
  30322      1    175     46      -8.630          0.1815E+06
  30323      1    175     47      -6.630          0.1815E+06
  30324      1    175     48      -6.750          0.1815E+06
  30325      1    175     49      -6.750          0.1815E+06
  30326      1    175     50      -6.730          0.1815E+06
  30327      1    175     51      -5.930          0.1815E+06
  30328      1    175     52      -4.230          0.1815E+06
  30329      1    175     53      -5.330          0.1815E+06
  30330      1    175     54      -5.130          0.1815E+06
  30331      1    175     55      -5.130          0.1815E+06
  30332      1    175     56      -4.330          0.1815E+06
  30333      1    175     57      -3.530          0.1815E+06
  30334      1    175     58      -4.830          0.1815E+06
  30335      1    175     59      -3.500          0.1815E+06
  30336      1    175     60      -2.340          0.1815E+06
  30337      1    175     61      -2.340          0.1815E+06
  30338      1    175     62     -0.4600          0.1815E+06
  30339      1    175     63      0.3200          0.1815E+06
  30340      1    175     64      0.6100          0.1815E+06
  30341      1    175     65       2.110          0.1815E+06
  30342      1    175     66       3.620          0.1815E+06
  30343      1    175     67       3.620          0.1815E+06
  30344      1    175     68       6.120          0.1815E+06
  30345      1    175     69       9.460          0.1815E+06
  30346      1    175     70       7.260          0.1815E+06
  30347      1    175     71       9.560          0.1815E+06
  30348      1    175     72       7.030          0.1815E+06
  30349      1    175     73       6.530          0.1815E+06
  30350      1    175     74       6.900          0.1815E+06
  30351      1    175     75       7.420          0.1815E+06
  30352      1    175     76       7.360          0.1815E+06
  30353      1    175     77       8.750          0.1815E+06
  30354      1    175     78       8.820          0.1815E+06
  30355      1    175     79       20.18          0.1815E+06
  30356      1    175     80       7.900          0.1815E+06
  30357      1    175     81       8.060          0.1815E+06
  30358      1    175     82       9.850          0.1815E+06
  30359      1    175     83       8.350          0.1815E+06
  30360      1    175     84       4.650          0.1815E+06
  30361      1    175     85       3.690          0.1815E+06
  30362      1    175     86       3.690          0.1815E+06
  30363      1    175     87       4.690          0.1815E+06
  30364      1    175     88       4.690          0.1815E+06
  30365      1    175     89       4.700          0.1815E+06
  30366      1    175     90       4.700          0.1815E+06
  30367      1    175     91       4.710          0.1815E+06
  30368      1    175     92       4.710          0.1815E+06
  30369      1    175     93       4.710          0.1815E+06
  30370      1    175     94       4.720          0.1815E+06
  30371      1    175     95       4.720          0.1815E+06
  30372      1    175     96       4.720          0.1815E+06
  30373      1    175     97       4.730          0.1815E+06
  30374      1    175     98       4.730          0.1815E+06
  30375      1    175     99       4.740          0.1815E+06
  30376      1    175    100       4.750          0.1815E+06
  30377      1    175    101       4.750          0.1815E+06
  30378      1    175    102       4.750          0.1815E+06
  30379      1    175    103       4.760          0.1815E+06
  30380      1    175    104       4.760          0.1815E+06
  30381      1    175    105       4.770          0.1815E+06
  30382      1    175    106       4.770          0.1815E+06
  30383      1    175    107       4.770          0.1815E+06
  30384      1    175    108       4.770          0.1815E+06
  30385      1    175    109       3.770          0.1815E+06
  30386      1    175    110       3.770          0.1815E+06
  30387      1    175    111       3.760          0.1815E+06
  30388      1    175    112       3.760          0.1815E+06
  30389      1    175    113       3.760          0.1815E+06
  30390      1    175    114       3.750          0.1815E+06
  30391      1    175    115       3.750          0.1815E+06
  30392      1    175    116       3.740          0.1815E+06
  30393      1    175    117       3.750          0.1815E+06
  30394      1    175    118       3.740          0.1815E+06
  30395      1    175    119       3.740          0.1815E+06
  30396      1    175    120       4.740          0.1815E+06
  30397      1    175    121       5.730          0.1815E+06
  30398      1    175    122       5.730          0.1815E+06
  30399      1    175    123       6.720          0.1815E+06
  30400      1    175    124       6.720          0.1815E+06
  30401      1    175    125       6.720          0.1815E+06
  30402      1    175    126       5.720          0.1815E+06
  30403      1    175    127       5.710          0.1815E+06
  30404      1    175    128       6.720          0.1815E+06
  30405      1    175    129       6.710          0.1815E+06
  30406      1    175    130       6.710          0.1815E+06
  30407      1    175    131       6.700          0.1815E+06
  30408      1    175    132       5.710          0.1815E+06
  30409      1    175    133       6.710          0.1815E+06
  30410      1    175    134       8.750          0.1815E+06
  30411      1    175    135       8.720          0.1815E+06
  30412      1    175    136       8.590          0.1815E+06
  30413      1    175    137       8.270          0.1815E+06
  30414      1    175    138       9.560          0.1815E+06
  30415      1    175    139       10.14          0.1815E+06
  30416      1    175    140       10.50          0.1815E+06
  30417      1    175    141       12.00          0.1815E+06
  30418      1    175    142       13.65          0.1815E+06
  30419      1    175    143       15.77          0.1815E+06
  30420      1    175    144       15.77          0.1815E+06
  30421      1    175    145       17.38          0.1815E+06
  30422      1    175    146       17.90          0.1815E+06
  30423      1    175    147       17.17          0.1815E+06
  30424      1    175    148       17.46          0.1815E+06
  30425      1    175    149       15.31          0.1815E+06
  30426      1    175    150       18.48          0.1815E+06
  30427      1    175    151       18.86          0.1815E+06
  30428      1    175    152       18.79          0.1815E+06
  30429      1    175    153       17.81          0.1815E+06
  30430      1    175    154       17.31          0.1815E+06
  30431      1    175    155       16.21          0.1815E+06
  30432      1    175    156       14.77          0.1815E+06
  30433      1    175    157       13.48          0.1815E+06
  30434      1    175    158       11.77          0.1815E+06
  30435      1    175    159       8.260          0.1815E+06
  30436      1    175    160       6.110          0.1815E+06
  30437      1    175    161       10.60          0.1815E+06
  30438      1    175    162       7.590          0.1815E+06
  30439      1    175    163       14.06          0.1815E+06
  30440      1    175    164       14.27          0.1815E+06
  30441      1    175    165       14.07          0.1815E+06
  30442      1    175    166       11.09          0.1815E+06
  30443      1    175    167       7.610          0.1815E+06
  30444      1    175    168       8.180          0.1815E+06
  30445      1    175    169       9.880          0.1815E+06
  30446      1    175    170       13.43          0.1815E+06
  30447      1    175    171       14.80          0.1815E+06
  30448      1    175    172       15.76          0.1815E+06
  30449      1    175    173       16.28          0.1815E+06
  30450      1    175    174       16.57          0.1815E+06
  30451      1    176      1      -14.86          0.1815E+06
  30452      1    176      2      -14.53          0.1815E+06
  30453      1    176      3      -14.53          0.1815E+06
  30454      1    176      4      -14.53          0.1815E+06
  30455      1    176      5      -14.68          0.1815E+06
  30456      1    176      6      -14.54          0.1815E+06
  30457      1    176      7      -14.38          0.1815E+06
  30458      1    176      8      -14.53          0.1815E+06
  30459      1    176      9      -14.53          0.1815E+06
  30460      1    176     10      -13.42          0.1815E+06
  30461      1    176     11      -12.93          0.1815E+06
  30462      1    176     12      -12.33          0.1815E+06
  30463      1    176     13      -11.83          0.1815E+06
  30464      1    176     14      -12.13          0.1815E+06
  30465      1    176     15      -12.13          0.1815E+06
  30466      1    176     16      -12.83          0.1815E+06
  30467      1    176     17      -13.63          0.1815E+06
  30468      1    176     18      -14.03          0.1815E+06
  30469      1    176     19      -14.19          0.1815E+06
  30470      1    176     20      -14.43          0.1815E+06
  30471      1    176     21      -14.43          0.1815E+06
  30472      1    176     22      -14.23          0.1815E+06
  30473      1    176     23      -14.03          0.1815E+06
  30474      1    176     24      -14.53          0.1815E+06
  30475      1    176     25      -13.84          0.1815E+06
  30476      1    176     26      -13.84          0.1815E+06
  30477      1    176     27      -14.33          0.1815E+06
  30478      1    176     28      -13.84          0.1815E+06
  30479      1    176     29      -14.37          0.1815E+06
  30480      1    176     30      -14.62          0.1815E+06
  30481      1    176     31      -15.05          0.1815E+06
  30482      1    176     32      -15.05          0.1815E+06
  30483      1    176     33      -15.14          0.1815E+06
  30484      1    176     34      -14.74          0.1815E+06
  30485      1    176     35      -13.94          0.1815E+06
  30486      1    176     36      -13.64          0.1815E+06
  30487      1    176     37      -13.62          0.1815E+06
  30488      1    176     38      -13.62          0.1815E+06
  30489      1    176     39      -13.34          0.1815E+06
  30490      1    176     40      -12.95          0.1815E+06
  30491      1    176     41      -12.53          0.1815E+06
  30492      1    176     42      -11.94          0.1815E+06
  30493      1    176     43      -11.54          0.1815E+06
  30494      1    176     44      -11.54          0.1815E+06
  30495      1    176     45      -10.43          0.1815E+06
  30496      1    176     46      -9.830          0.1815E+06
  30497      1    176     47      -8.670          0.1815E+06
  30498      1    176     48      -8.130          0.1815E+06
  30499      1    176     49      -8.130          0.1815E+06
  30500      1    176     50      -6.130          0.1815E+06
  30501      1    176     51      -5.330          0.1815E+06
  30502      1    176     52      -5.630          0.1815E+06
  30503      1    176     53      -5.750          0.1815E+06
  30504      1    176     54      -5.430          0.1815E+06
  30505      1    176     55      -5.430          0.1815E+06
  30506      1    176     56      -4.820          0.1815E+06
  30507      1    176     57      -4.930          0.1815E+06
  30508      1    176     58      -4.830          0.1815E+06
  30509      1    176     59      -3.200          0.1815E+06
  30510      1    176     60      -1.710          0.1815E+06
  30511      1    176     61      -1.710          0.1815E+06
  30512      1    176     62      0.6000          0.1815E+06
  30513      1    176     63      0.6100          0.1815E+06
  30514      1    176     64      0.6200          0.1815E+06
  30515      1    176     65       1.620          0.1815E+06
  30516      1    176     66       3.620          0.1815E+06
  30517      1    176     67       3.620          0.1815E+06
  30518      1    176     68       6.120          0.1815E+06
  30519      1    176     69       10.14          0.1815E+06
  30520      1    176     70       10.98          0.1815E+06
  30521      1    176     71       7.760          0.1815E+06
  30522      1    176     72       7.710          0.1815E+06
  30523      1    176     73       6.650          0.1815E+06
  30524      1    176     74       7.110          0.1815E+06
  30525      1    176     75       7.440          0.1815E+06
  30526      1    176     76       6.820          0.1815E+06
  30527      1    176     77       7.510          0.1815E+06
  30528      1    176     78       5.880          0.1815E+06
  30529      1    176     79       11.93          0.1815E+06
  30530      1    176     80       9.070          0.1815E+06
  30531      1    176     81       6.590          0.1815E+06
  30532      1    176     82       9.220          0.1815E+06
  30533      1    176     83       9.350          0.1815E+06
  30534      1    176     84       3.930          0.1815E+06
  30535      1    176     85       3.690          0.1815E+06
  30536      1    176     86       3.690          0.1815E+06
  30537      1    176     87       4.690          0.1815E+06
  30538      1    176     88       4.700          0.1815E+06
  30539      1    176     89       4.700          0.1815E+06
  30540      1    176     90       4.700          0.1815E+06
  30541      1    176     91       4.700          0.1815E+06
  30542      1    176     92       4.710          0.1815E+06
  30543      1    176     93       4.710          0.1815E+06
  30544      1    176     94       4.720          0.1815E+06
  30545      1    176     95       4.720          0.1815E+06
  30546      1    176     96       4.720          0.1815E+06
  30547      1    176     97       4.730          0.1815E+06
  30548      1    176     98       4.740          0.1815E+06
  30549      1    176     99       4.740          0.1815E+06
  30550      1    176    100       4.740          0.1815E+06
  30551      1    176    101       4.740          0.1815E+06
  30552      1    176    102       4.750          0.1815E+06
  30553      1    176    103       4.760          0.1815E+06
  30554      1    176    104       4.760          0.1815E+06
  30555      1    176    105       4.760          0.1815E+06
  30556      1    176    106       4.770          0.1815E+06
  30557      1    176    107       4.770          0.1815E+06
  30558      1    176    108       4.770          0.1815E+06
  30559      1    176    109       3.770          0.1815E+06
  30560      1    176    110       3.760          0.1815E+06
  30561      1    176    111       3.770          0.1815E+06
  30562      1    176    112       3.760          0.1815E+06
  30563      1    176    113       3.760          0.1815E+06
  30564      1    176    114       3.750          0.1815E+06
  30565      1    176    115       3.750          0.1815E+06
  30566      1    176    116       3.750          0.1815E+06
  30567      1    176    117       3.750          0.1815E+06
  30568      1    176    118       4.000          0.1815E+06
  30569      1    176    119       4.000          0.1815E+06
  30570      1    176    120       4.740          0.1815E+06
  30571      1    176    121       5.730          0.1815E+06
  30572      1    176    122       5.720          0.1815E+06
  30573      1    176    123       5.720          0.1815E+06
  30574      1    176    124       5.720          0.1815E+06
  30575      1    176    125       5.720          0.1815E+06
  30576      1    176    126       5.720          0.1815E+06
  30577      1    176    127       6.710          0.1815E+06
  30578      1    176    128       5.720          0.1815E+06
  30579      1    176    129       5.710          0.1815E+06
  30580      1    176    130       5.710          0.1815E+06
  30581      1    176    131       5.700          0.1815E+06
  30582      1    176    132       5.710          0.1815E+06
  30583      1    176    133       6.700          0.1815E+06
  30584      1    176    134       8.700          0.1815E+06
  30585      1    176    135       7.710          0.1815E+06
  30586      1    176    136       7.710          0.1815E+06
  30587      1    176    137       6.280          0.1815E+06
  30588      1    176    138       6.920          0.1815E+06
  30589      1    176    139       9.090          0.1815E+06
  30590      1    176    140       12.75          0.1815E+06
  30591      1    176    141       14.23          0.1815E+06
  30592      1    176    142       14.85          0.1815E+06
  30593      1    176    143       15.53          0.1815E+06
  30594      1    176    144       16.40          0.1815E+06
  30595      1    176    145       17.30          0.1815E+06
  30596      1    176    146       16.50          0.1815E+06
  30597      1    176    147       16.05          0.1815E+06
  30598      1    176    148       16.45          0.1815E+06
  30599      1    176    149       16.75          0.1815E+06
  30600      1    176    150       16.77          0.1815E+06
  30601      1    176    151       17.04          0.1815E+06
  30602      1    176    152       17.10          0.1815E+06
  30603      1    176    153       16.95          0.1815E+06
  30604      1    176    154       16.62          0.1815E+06
  30605      1    176    155       15.22          0.1815E+06
  30606      1    176    156       14.72          0.1815E+06
  30607      1    176    157       13.89          0.1815E+06
  30608      1    176    158       12.89          0.1815E+06
  30609      1    176    159       9.510          0.1815E+06
  30610      1    176    160       6.280          0.1815E+06
  30611      1    176    161       5.690          0.1815E+06
  30612      1    176    162       11.44          0.1815E+06
  30613      1    176    163       13.88          0.1815E+06
  30614      1    176    164       13.55          0.1815E+06
  30615      1    176    165       11.40          0.1815E+06
  30616      1    176    166       7.710          0.1815E+06
  30617      1    176    167       7.420          0.1815E+06
  30618      1    176    168       7.530          0.1815E+06
  30619      1    176    169       11.01          0.1815E+06
  30620      1    176    170       13.53          0.1815E+06
  30621      1    176    171       14.06          0.1815E+06
  30622      1    176    172       14.56          0.1815E+06
  30623      1    176    173       15.02          0.1815E+06
  30624      1    176    174       15.26          0.1815E+06
  30625      1    177      1      -15.33          0.1815E+06
  30626      1    177      2      -14.63          0.1815E+06
  30627      1    177      3      -14.63          0.1815E+06
  30628      1    177      4      -14.31          0.1815E+06
  30629      1    177      5      -14.00          0.1815E+06
  30630      1    177      6      -13.43          0.1815E+06
  30631      1    177      7      -13.63          0.1815E+06
  30632      1    177      8      -14.52          0.1815E+06
  30633      1    177      9      -14.52          0.1815E+06
  30634      1    177     10      -13.52          0.1815E+06
  30635      1    177     11      -13.52          0.1815E+06
  30636      1    177     12      -12.33          0.1815E+06
  30637      1    177     13      -11.83          0.1815E+06
  30638      1    177     14      -12.13          0.1815E+06
  30639      1    177     15      -12.13          0.1815E+06
  30640      1    177     16      -12.83          0.1815E+06
  30641      1    177     17      -13.23          0.1815E+06
  30642      1    177     18      -13.09          0.1815E+06
  30643      1    177     19      -13.63          0.1815E+06
  30644      1    177     20      -14.63          0.1815E+06
  30645      1    177     21      -14.63          0.1815E+06
  30646      1    177     22      -15.23          0.1815E+06
  30647      1    177     23      -14.74          0.1815E+06
  30648      1    177     24      -15.20          0.1815E+06
  30649      1    177     25      -15.39          0.1815E+06
  30650      1    177     26      -15.39          0.1815E+06
  30651      1    177     27      -14.89          0.1815E+06
  30652      1    177     28      -14.83          0.1815E+06
  30653      1    177     29      -14.94          0.1815E+06
  30654      1    177     30      -15.23          0.1815E+06
  30655      1    177     31      -15.34          0.1815E+06
  30656      1    177     32      -15.34          0.1815E+06
  30657      1    177     33      -15.14          0.1815E+06
  30658      1    177     34      -15.14          0.1815E+06
  30659      1    177     35      -14.54          0.1815E+06
  30660      1    177     36      -13.64          0.1815E+06
  30661      1    177     37      -13.62          0.1815E+06
  30662      1    177     38      -13.62          0.1815E+06
  30663      1    177     39      -12.74          0.1815E+06
  30664      1    177     40      -12.95          0.1815E+06
  30665      1    177     41      -12.91          0.1815E+06
  30666      1    177     42      -12.84          0.1815E+06
  30667      1    177     43      -11.94          0.1815E+06
  30668      1    177     44      -11.94          0.1815E+06
  30669      1    177     45      -11.16          0.1815E+06
  30670      1    177     46      -10.72          0.1815E+06
  30671      1    177     47      -10.14          0.1815E+06
  30672      1    177     48      -7.230          0.1815E+06
  30673      1    177     49      -7.230          0.1815E+06
  30674      1    177     50      -5.730          0.1815E+06
  30675      1    177     51      -5.730          0.1815E+06
  30676      1    177     52      -6.230          0.1815E+06
  30677      1    177     53      -5.530          0.1815E+06
  30678      1    177     54      -4.730          0.1815E+06
  30679      1    177     55      -4.730          0.1815E+06
  30680      1    177     56      -4.330          0.1815E+06
  30681      1    177     57      -4.730          0.1815E+06
  30682      1    177     58      -4.230          0.1815E+06
  30683      1    177     59      -3.360          0.1815E+06
  30684      1    177     60      -2.230          0.1815E+06
  30685      1    177     61      -2.230          0.1815E+06
  30686      1    177     62      0.6000          0.1815E+06
  30687      1    177     63      0.6100          0.1815E+06
  30688      1    177     64      0.6200          0.1815E+06
  30689      1    177     65       1.620          0.1815E+06
  30690      1    177     66       3.620          0.1815E+06
  30691      1    177     67       3.620          0.1815E+06
  30692      1    177     68       5.620          0.1815E+06
  30693      1    177     69       6.480          0.1815E+06
  30694      1    177     70       10.64          0.1815E+06
  30695      1    177     71       7.840          0.1815E+06
  30696      1    177     72       7.980          0.1815E+06
  30697      1    177     73       7.070          0.1815E+06
  30698      1    177     74       7.730          0.1815E+06
  30699      1    177     75       6.360          0.1815E+06
  30700      1    177     76       6.460          0.1815E+06
  30701      1    177     77       9.020          0.1815E+06
  30702      1    177     78       14.39          0.1815E+06
  30703      1    177     79       11.88          0.1815E+06
  30704      1    177     80       9.220          0.1815E+06
  30705      1    177     81       8.650          0.1815E+06
  30706      1    177     82       10.13          0.1815E+06
  30707      1    177     83       4.680          0.1815E+06
  30708      1    177     84       4.680          0.1815E+06
  30709      1    177     85       3.690          0.1815E+06
  30710      1    177     86       4.680          0.1815E+06
  30711      1    177     87       4.690          0.1815E+06
  30712      1    177     88       4.700          0.1815E+06
  30713      1    177     89       4.700          0.1815E+06
  30714      1    177     90       4.700          0.1815E+06
  30715      1    177     91       4.700          0.1815E+06
  30716      1    177     92       4.710          0.1815E+06
  30717      1    177     93       4.720          0.1815E+06
  30718      1    177     94       4.720          0.1815E+06
  30719      1    177     95       4.720          0.1815E+06
  30720      1    177     96       4.720          0.1815E+06
  30721      1    177     97       4.730          0.1815E+06
  30722      1    177     98       4.730          0.1815E+06
  30723      1    177     99       4.740          0.1815E+06
  30724      1    177    100       4.740          0.1815E+06
  30725      1    177    101       4.740          0.1815E+06
  30726      1    177    102       4.750          0.1815E+06
  30727      1    177    103       3.750          0.1815E+06
  30728      1    177    104       3.770          0.1815E+06
  30729      1    177    105       4.770          0.1815E+06
  30730      1    177    106       4.770          0.1815E+06
  30731      1    177    107       4.770          0.1815E+06
  30732      1    177    108       4.760          0.1815E+06
  30733      1    177    109       3.770          0.1815E+06
  30734      1    177    110       3.760          0.1815E+06
  30735      1    177    111       3.760          0.1815E+06
  30736      1    177    112       3.760          0.1815E+06
  30737      1    177    113       3.760          0.1815E+06
  30738      1    177    114       3.750          0.1815E+06
  30739      1    177    115       3.750          0.1815E+06
  30740      1    177    116       3.750          0.1815E+06
  30741      1    177    117       3.740          0.1815E+06
  30742      1    177    118       3.740          0.1815E+06
  30743      1    177    119       3.740          0.1815E+06
  30744      1    177    120       4.730          0.1815E+06
  30745      1    177    121       4.720          0.1815E+06
  30746      1    177    122       4.730          0.1815E+06
  30747      1    177    123       5.720          0.1815E+06
  30748      1    177    124       5.720          0.1815E+06
  30749      1    177    125       5.720          0.1815E+06
  30750      1    177    126       5.720          0.1815E+06
  30751      1    177    127       5.710          0.1815E+06
  30752      1    177    128       5.710          0.1815E+06
  30753      1    177    129       5.710          0.1815E+06
  30754      1    177    130       5.710          0.1815E+06
  30755      1    177    131       5.710          0.1815E+06
  30756      1    177    132       5.530          0.1815E+06
  30757      1    177    133       5.530          0.1815E+06
  30758      1    177    134       6.700          0.1815E+06
  30759      1    177    135       6.700          0.1815E+06
  30760      1    177    136       6.700          0.1815E+06
  30761      1    177    137       6.700          0.1815E+06
  30762      1    177    138       8.630          0.1815E+06
  30763      1    177    139       10.22          0.1815E+06
  30764      1    177    140       12.88          0.1815E+06
  30765      1    177    141       14.82          0.1815E+06
  30766      1    177    142       14.81          0.1815E+06
  30767      1    177    143       15.71          0.1815E+06
  30768      1    177    144       16.23          0.1815E+06
  30769      1    177    145       16.07          0.1815E+06
  30770      1    177    146       15.57          0.1815E+06
  30771      1    177    147       14.93          0.1815E+06
  30772      1    177    148       14.36          0.1815E+06
  30773      1    177    149       14.72          0.1815E+06
  30774      1    177    150       15.25          0.1815E+06
  30775      1    177    151       15.60          0.1815E+06
  30776      1    177    152       16.02          0.1815E+06
  30777      1    177    153       15.64          0.1815E+06
  30778      1    177    154       15.39          0.1815E+06
  30779      1    177    155       14.81          0.1815E+06
  30780      1    177    156       13.82          0.1815E+06
  30781      1    177    157       13.97          0.1815E+06
  30782      1    177    158       12.93          0.1815E+06
  30783      1    177    159       9.350          0.1815E+06
  30784      1    177    160       5.960          0.1815E+06
  30785      1    177    161       6.170          0.1815E+06
  30786      1    177    162       12.82          0.1815E+06
  30787      1    177    163       13.50          0.1815E+06
  30788      1    177    164       12.56          0.1815E+06
  30789      1    177    165       9.310          0.1815E+06
  30790      1    177    166       7.070          0.1815E+06
  30791      1    177    167       7.010          0.1815E+06
  30792      1    177    168       8.670          0.1815E+06
  30793      1    177    169       12.75          0.1815E+06
  30794      1    177    170       13.17          0.1815E+06
  30795      1    177    171       12.80          0.1815E+06
  30796      1    177    172       13.28          0.1815E+06
  30797      1    177    173       11.97          0.1815E+06
  30798      1    177    174       14.15          0.1815E+06
  30799      1    178      1      -14.83          0.1815E+06
  30800      1    178      2      -14.53          0.1815E+06
  30801      1    178      3      -14.53          0.1815E+06
  30802      1    178      4      -14.22          0.1815E+06
  30803      1    178      5      -14.23          0.1815E+06
  30804      1    178      6      -14.38          0.1815E+06
  30805      1    178      7      -13.63          0.1815E+06
  30806      1    178      8      -14.03          0.1815E+06
  30807      1    178      9      -14.03          0.1815E+06
  30808      1    178     10      -13.52          0.1815E+06
  30809      1    178     11      -13.52          0.1815E+06
  30810      1    178     12      -13.52          0.1815E+06
  30811      1    178     13      -12.83          0.1815E+06
  30812      1    178     14      -12.33          0.1815E+06
  30813      1    178     15      -12.33          0.1815E+06
  30814      1    178     16      -12.22          0.1815E+06
  30815      1    178     17      -12.53          0.1815E+06
  30816      1    178     18      -12.43          0.1815E+06
  30817      1    178     19      -13.54          0.1815E+06
  30818      1    178     20      -14.38          0.1815E+06
  30819      1    178     21      -14.38          0.1815E+06
  30820      1    178     22      -14.64          0.1815E+06
  30821      1    178     23      -14.94          0.1815E+06
  30822      1    178     24      -15.54          0.1815E+06
  30823      1    178     25      -15.54          0.1815E+06
  30824      1    178     26      -15.54          0.1815E+06
  30825      1    178     27      -15.51          0.1815E+06
  30826      1    178     28      -15.44          0.1815E+06
  30827      1    178     29      -15.14          0.1815E+06
  30828      1    178     30      -15.24          0.1815E+06
  30829      1    178     31      -15.34          0.1815E+06
  30830      1    178     32      -15.34          0.1815E+06
  30831      1    178     33      -15.14          0.1815E+06
  30832      1    178     34      -15.14          0.1815E+06
  30833      1    178     35      -14.54          0.1815E+06
  30834      1    178     36      -14.54          0.1815E+06
  30835      1    178     37      -14.14          0.1815E+06
  30836      1    178     38      -14.14          0.1815E+06
  30837      1    178     39      -13.42          0.1815E+06
  30838      1    178     40      -13.43          0.1815E+06
  30839      1    178     41      -13.14          0.1815E+06
  30840      1    178     42      -13.34          0.1815E+06
  30841      1    178     43      -12.12          0.1815E+06
  30842      1    178     44      -12.12          0.1815E+06
  30843      1    178     45      -11.24          0.1815E+06
  30844      1    178     46      -11.04          0.1815E+06
  30845      1    178     47      -10.67          0.1815E+06
  30846      1    178     48      -9.040          0.1815E+06
  30847      1    178     49      -9.040          0.1815E+06
  30848      1    178     50      -7.430          0.1815E+06
  30849      1    178     51      -6.240          0.1815E+06
  30850      1    178     52      -6.540          0.1815E+06
  30851      1    178     53      -6.830          0.1815E+06
  30852      1    178     54      -6.140          0.1815E+06
  30853      1    178     55      -6.140          0.1815E+06
  30854      1    178     56      -5.130          0.1815E+06
  30855      1    178     57      -4.730          0.1815E+06
  30856      1    178     58      -3.830          0.1815E+06
  30857      1    178     59      -3.360          0.1815E+06
  30858      1    178     60      -2.230          0.1815E+06
  30859      1    178     61      -2.230          0.1815E+06
  30860      1    178     62      0.6000          0.1815E+06
  30861      1    178     63      0.6000          0.1815E+06
  30862      1    178     64      0.6100          0.1815E+06
  30863      1    178     65       1.620          0.1815E+06
  30864      1    178     66       3.610          0.1815E+06
  30865      1    178     67       3.610          0.1815E+06
  30866      1    178     68       4.620          0.1815E+06
  30867      1    178     69       6.620          0.1815E+06
  30868      1    178     70       9.630          0.1815E+06
  30869      1    178     71       11.43          0.1815E+06
  30870      1    178     72       9.220          0.1815E+06
  30871      1    178     73       7.260          0.1815E+06
  30872      1    178     74       5.670          0.1815E+06
  30873      1    178     75       6.960          0.1815E+06
  30874      1    178     76       5.460          0.1815E+06
  30875      1    178     77       5.210          0.1815E+06
  30876      1    178     78       13.77          0.1815E+06
  30877      1    178     79       14.35          0.1815E+06
  30878      1    178     80       11.57          0.1815E+06
  30879      1    178     81       6.380          0.1815E+06
  30880      1    178     82       7.530          0.1815E+06
  30881      1    178     83       4.680          0.1815E+06
  30882      1    178     84       4.680          0.1815E+06
  30883      1    178     85       3.690          0.1815E+06
  30884      1    178     86       4.680          0.1815E+06
  30885      1    178     87       4.690          0.1815E+06
  30886      1    178     88       4.700          0.1815E+06
  30887      1    178     89       4.700          0.1815E+06
  30888      1    178     90       4.700          0.1815E+06
  30889      1    178     91       4.710          0.1815E+06
  30890      1    178     92       4.710          0.1815E+06
  30891      1    178     93       4.710          0.1815E+06
  30892      1    178     94       4.710          0.1815E+06
  30893      1    178     95       4.710          0.1815E+06
  30894      1    178     96       4.730          0.1815E+06
  30895      1    178     97       4.730          0.1815E+06
  30896      1    178     98       4.730          0.1815E+06
  30897      1    178     99       4.740          0.1815E+06
  30898      1    178    100       4.740          0.1815E+06
  30899      1    178    101       4.740          0.1815E+06
  30900      1    178    102       4.750          0.1815E+06
  30901      1    178    103       4.750          0.1815E+06
  30902      1    178    104       4.760          0.1815E+06
  30903      1    178    105       4.760          0.1815E+06
  30904      1    178    106       4.770          0.1815E+06
  30905      1    178    107       4.770          0.1815E+06
  30906      1    178    108       3.760          0.1815E+06
  30907      1    178    109       3.770          0.1815E+06
  30908      1    178    110       3.760          0.1815E+06
  30909      1    178    111       3.760          0.1815E+06
  30910      1    178    112       3.760          0.1815E+06
  30911      1    178    113       3.760          0.1815E+06
  30912      1    178    114       3.750          0.1815E+06
  30913      1    178    115       3.750          0.1815E+06
  30914      1    178    116       4.740          0.1815E+06
  30915      1    178    117       4.740          0.1815E+06
  30916      1    178    118       5.730          0.1815E+06
  30917      1    178    119       5.730          0.1815E+06
  30918      1    178    120       5.740          0.1815E+06
  30919      1    178    121       5.230          0.1815E+06
  30920      1    178    122       5.720          0.1815E+06
  30921      1    178    123       5.720          0.1815E+06
  30922      1    178    124       5.720          0.1815E+06
  30923      1    178    125       5.720          0.1815E+06
  30924      1    178    126       5.720          0.1815E+06
  30925      1    178    127       5.690          0.1815E+06
  30926      1    178    128       5.510          0.1815E+06
  30927      1    178    129       7.820          0.1815E+06
  30928      1    178    130       5.110          0.1815E+06
  30929      1    178    131       5.730          0.1815E+06
  30930      1    178    132       5.630          0.1815E+06
  30931      1    178    133       5.380          0.1815E+06
  30932      1    178    134       6.700          0.1815E+06
  30933      1    178    135       6.700          0.1815E+06
  30934      1    178    136       6.700          0.1815E+06
  30935      1    178    137       6.700          0.1815E+06
  30936      1    178    138       5.940          0.1815E+06
  30937      1    178    139       11.98          0.1815E+06
  30938      1    178    140       12.89          0.1815E+06
  30939      1    178    141       14.36          0.1815E+06
  30940      1    178    142       14.47          0.1815E+06
  30941      1    178    143       15.26          0.1815E+06
  30942      1    178    144       14.85          0.1815E+06
  30943      1    178    145       14.43          0.1815E+06
  30944      1    178    146       14.32          0.1815E+06
  30945      1    178    147       13.27          0.1815E+06
  30946      1    178    148       11.06          0.1815E+06
  30947      1    178    149       13.25          0.1815E+06
  30948      1    178    150       14.02          0.1815E+06
  30949      1    178    151       14.39          0.1815E+06
  30950      1    178    152       14.67          0.1815E+06
  30951      1    178    153       14.56          0.1815E+06
  30952      1    178    154       14.06          0.1815E+06
  30953      1    178    155       13.27          0.1815E+06
  30954      1    178    156       12.68          0.1815E+06
  30955      1    178    157       12.64          0.1815E+06
  30956      1    178    158       11.85          0.1815E+06
  30957      1    178    159       9.390          0.1815E+06
  30958      1    178    160       5.840          0.1815E+06
  30959      1    178    161       6.090          0.1815E+06
  30960      1    178    162       12.21          0.1815E+06
  30961      1    178    163       12.02          0.1815E+06
  30962      1    178    164       7.510          0.1815E+06
  30963      1    178    165       6.320          0.1815E+06
  30964      1    178    166       6.610          0.1815E+06
  30965      1    178    167       6.800          0.1815E+06
  30966      1    178    168       10.48          0.1815E+06
  30967      1    178    169       11.93          0.1815E+06
  30968      1    178    170       11.31          0.1815E+06
  30969      1    178    171       10.64          0.1815E+06
  30970      1    178    172       10.44          0.1815E+06
  30971      1    178    173       11.01          0.1815E+06
  30972      1    178    174       13.81          0.1815E+06
  30973      1    179      1      -15.02          0.1815E+06
  30974      1    179      2      -14.53          0.1815E+06
  30975      1    179      3      -14.53          0.1815E+06
  30976      1    179      4      -14.22          0.1815E+06
  30977      1    179      5      -14.23          0.1815E+06
  30978      1    179      6      -14.38          0.1815E+06
  30979      1    179      7      -14.43          0.1815E+06
  30980      1    179      8      -14.13          0.1815E+06
  30981      1    179      9      -14.13          0.1815E+06
  30982      1    179     10      -13.86          0.1815E+06
  30983      1    179     11      -13.53          0.1815E+06
  30984      1    179     12      -13.33          0.1815E+06
  30985      1    179     13      -12.06          0.1815E+06
  30986      1    179     14      -10.93          0.1815E+06
  30987      1    179     15      -10.93          0.1815E+06
  30988      1    179     16      -11.13          0.1815E+06
  30989      1    179     17      -12.43          0.1815E+06
  30990      1    179     18      -12.44          0.1815E+06
  30991      1    179     19      -13.33          0.1815E+06
  30992      1    179     20      -13.31          0.1815E+06
  30993      1    179     21      -13.31          0.1815E+06
  30994      1    179     22      -14.64          0.1815E+06
  30995      1    179     23      -14.74          0.1815E+06
  30996      1    179     24      -14.89          0.1815E+06
  30997      1    179     25      -15.04          0.1815E+06
  30998      1    179     26      -15.04          0.1815E+06
  30999      1    179     27      -15.59          0.1815E+06
  31000      1    179     28      -15.04          0.1815E+06
  31001      1    179     29      -15.14          0.1815E+06
  31002      1    179     30      -15.24          0.1815E+06
  31003      1    179     31      -14.34          0.1815E+06
  31004      1    179     32      -14.34          0.1815E+06
  31005      1    179     33      -14.54          0.1815E+06
  31006      1    179     34      -15.17          0.1815E+06
  31007      1    179     35      -14.94          0.1815E+06
  31008      1    179     36      -14.64          0.1815E+06
  31009      1    179     37      -14.52          0.1815E+06
  31010      1    179     38      -14.52          0.1815E+06
  31011      1    179     39      -14.09          0.1815E+06
  31012      1    179     40      -14.14          0.1815E+06
  31013      1    179     41      -13.44          0.1815E+06
  31014      1    179     42      -13.29          0.1815E+06
  31015      1    179     43      -12.34          0.1815E+06
  31016      1    179     44      -12.34          0.1815E+06
  31017      1    179     45      -11.44          0.1815E+06
  31018      1    179     46      -11.20          0.1815E+06
  31019      1    179     47      -10.94          0.1815E+06
  31020      1    179     48      -10.05          0.1815E+06
  31021      1    179     49      -10.05          0.1815E+06
  31022      1    179     50      -9.230          0.1815E+06
  31023      1    179     51      -7.630          0.1815E+06
  31024      1    179     52      -6.540          0.1815E+06
  31025      1    179     53      -6.830          0.1815E+06
  31026      1    179     54      -6.140          0.1815E+06
  31027      1    179     55      -6.140          0.1815E+06
  31028      1    179     56      -5.130          0.1815E+06
  31029      1    179     57      -4.830          0.1815E+06
  31030      1    179     58      -4.080          0.1815E+06
  31031      1    179     59      -3.730          0.1815E+06
  31032      1    179     60      -3.030          0.1815E+06
  31033      1    179     61      -3.030          0.1815E+06
  31034      1    179     62      0.6000          0.1815E+06
  31035      1    179     63      0.6100          0.1815E+06
  31036      1    179     64      0.6100          0.1815E+06
  31037      1    179     65       2.610          0.1815E+06
  31038      1    179     66       2.620          0.1815E+06
  31039      1    179     67       2.620          0.1815E+06
  31040      1    179     68       2.630          0.1815E+06
  31041      1    179     69       3.630          0.1815E+06
  31042      1    179     70       5.630          0.1815E+06
  31043      1    179     71       7.140          0.1815E+06
  31044      1    179     72       7.140          0.1815E+06
  31045      1    179     73       7.440          0.1815E+06
  31046      1    179     74       5.820          0.1815E+06
  31047      1    179     75       7.070          0.1815E+06
  31048      1    179     76       5.420          0.1815E+06
  31049      1    179     77       6.590          0.1815E+06
  31050      1    179     78       5.920          0.1815E+06
  31051      1    179     79       6.170          0.1815E+06
  31052      1    179     80       16.77          0.1815E+06
  31053      1    179     81       12.97          0.1815E+06
  31054      1    179     82       7.610          0.1815E+06
  31055      1    179     83       4.680          0.1815E+06
  31056      1    179     84       4.680          0.1815E+06
  31057      1    179     85       3.690          0.1815E+06
  31058      1    179     86       3.690          0.1815E+06
  31059      1    179     87       4.690          0.1815E+06
  31060      1    179     88       4.700          0.1815E+06
  31061      1    179     89       4.700          0.1815E+06
  31062      1    179     90       4.700          0.1815E+06
  31063      1    179     91       4.710          0.1815E+06
  31064      1    179     92       4.710          0.1815E+06
  31065      1    179     93       4.720          0.1815E+06
  31066      1    179     94       4.720          0.1815E+06
  31067      1    179     95       4.720          0.1815E+06
  31068      1    179     96       4.720          0.1815E+06
  31069      1    179     97       4.720          0.1815E+06
  31070      1    179     98       3.740          0.1815E+06
  31071      1    179     99       3.740          0.1815E+06
  31072      1    179    100       4.740          0.1815E+06
  31073      1    179    101       4.740          0.1815E+06
  31074      1    179    102       5.740          0.1815E+06
  31075      1    179    103       6.750          0.1815E+06
  31076      1    179    104       4.760          0.1815E+06
  31077      1    179    105       4.760          0.1815E+06
  31078      1    179    106       4.770          0.1815E+06
  31079      1    179    107       4.770          0.1815E+06
  31080      1    179    108       4.760          0.1815E+06
  31081      1    179    109       4.550          0.1815E+06
  31082      1    179    110       4.770          0.1815E+06
  31083      1    179    111       4.760          0.1815E+06
  31084      1    179    112       3.750          0.1815E+06
  31085      1    179    113       3.750          0.1815E+06
  31086      1    179    114       4.740          0.1815E+06
  31087      1    179    115       4.750          0.1815E+06
  31088      1    179    116       5.740          0.1815E+06
  31089      1    179    117       4.740          0.1815E+06
  31090      1    179    118       4.740          0.1815E+06
  31091      1    179    119       4.740          0.1815E+06
  31092      1    179    120       4.730          0.1815E+06
  31093      1    179    121       5.720          0.1815E+06
  31094      1    179    122       5.720          0.1815E+06
  31095      1    179    123       5.650          0.1815E+06
  31096      1    179    124       5.840          0.1815E+06
  31097      1    179    125       5.750          0.1815E+06
  31098      1    179    126       7.590          0.1815E+06
  31099      1    179    127       7.860          0.1815E+06
  31100      1    179    128       7.630          0.1815E+06
  31101      1    179    129       6.280          0.1815E+06
  31102      1    179    130       7.630          0.1815E+06
  31103      1    179    131       5.920          0.1815E+06
  31104      1    179    132       5.670          0.1815E+06
  31105      1    179    133       5.630          0.1815E+06
  31106      1    179    134       5.230          0.1815E+06
  31107      1    179    135       7.230          0.1815E+06
  31108      1    179    136       5.650          0.1815E+06
  31109      1    179    137       5.700          0.1815E+06
  31110      1    179    138       8.700          0.1815E+06
  31111      1    179    139       12.80          0.1815E+06
  31112      1    179    140       13.50          0.1815E+06
  31113      1    179    141       13.76          0.1815E+06
  31114      1    179    142       14.10          0.1815E+06
  31115      1    179    143       14.39          0.1815E+06
  31116      1    179    144       13.85          0.1815E+06
  31117      1    179    145       12.18          0.1815E+06
  31118      1    179    146       12.23          0.1815E+06
  31119      1    179    147       11.14          0.1815E+06
  31120      1    179    148       7.920          0.1815E+06
  31121      1    179    149       12.06          0.1815E+06
  31122      1    179    150       11.59          0.1815E+06
  31123      1    179    151       13.03          0.1815E+06
  31124      1    179    152       13.11          0.1815E+06
  31125      1    179    153       13.15          0.1815E+06
  31126      1    179    154       12.35          0.1815E+06
  31127      1    179    155       11.56          0.1815E+06
  31128      1    179    156       10.42          0.1815E+06
  31129      1    179    157       11.14          0.1815E+06
  31130      1    179    158       9.930          0.1815E+06
  31131      1    179    159       6.710          0.1815E+06
  31132      1    179    160       6.960          0.1815E+06
  31133      1    179    161       6.210          0.1815E+06
  31134      1    179    162       5.940          0.1815E+06
  31135      1    179    163       7.750          0.1815E+06
  31136      1    179    164       6.480          0.1815E+06
  31137      1    179    165       6.150          0.1815E+06
  31138      1    179    166       6.300          0.1815E+06
  31139      1    179    167       7.170          0.1815E+06
  31140      1    179    168       10.97          0.1815E+06
  31141      1    179    169       9.360          0.1815E+06
  31142      1    179    170       9.050          0.1815E+06
  31143      1    179    171       8.890          0.1815E+06
  31144      1    179    172       8.780          0.1815E+06
  31145      1    179    173       9.180          0.1815E+06
  31146      1    179    174       13.06          0.1815E+06
  31147      1    180      1      -15.02          0.1815E+06
  31148      1    180      2      -14.81          0.1815E+06
  31149      1    180      3      -14.81          0.1815E+06
  31150      1    180      4      -14.23          0.1815E+06
  31151      1    180      5      -14.23          0.1815E+06
  31152      1    180      6      -14.23          0.1815E+06
  31153      1    180      7      -14.23          0.1815E+06
  31154      1    180      8      -14.49          0.1815E+06
  31155      1    180      9      -14.49          0.1815E+06
  31156      1    180     10      -14.33          0.1815E+06
  31157      1    180     11      -13.53          0.1815E+06
  31158      1    180     12      -12.71          0.1815E+06
  31159      1    180     13      -10.88          0.1815E+06
  31160      1    180     14      -11.13          0.1815E+06
  31161      1    180     15      -11.13          0.1815E+06
  31162      1    180     16      -11.01          0.1815E+06
  31163      1    180     17      -10.73          0.1815E+06
  31164      1    180     18      -12.44          0.1815E+06
  31165      1    180     19      -11.51          0.1815E+06
  31166      1    180     20      -10.84          0.1815E+06
  31167      1    180     21      -10.84          0.1815E+06
  31168      1    180     22      -13.84          0.1815E+06
  31169      1    180     23      -14.74          0.1815E+06
  31170      1    180     24      -14.89          0.1815E+06
  31171      1    180     25      -15.04          0.1815E+06
  31172      1    180     26      -15.04          0.1815E+06
  31173      1    180     27      -15.59          0.1815E+06
  31174      1    180     28      -15.24          0.1815E+06
  31175      1    180     29      -14.44          0.1815E+06
  31176      1    180     30      -14.34          0.1815E+06
  31177      1    180     31      -14.34          0.1815E+06
  31178      1    180     32      -14.34          0.1815E+06
  31179      1    180     33      -14.04          0.1815E+06
  31180      1    180     34      -14.94          0.1815E+06
  31181      1    180     35      -15.24          0.1815E+06
  31182      1    180     36      -15.07          0.1815E+06
  31183      1    180     37      -14.94          0.1815E+06
  31184      1    180     38      -14.94          0.1815E+06
  31185      1    180     39      -14.34          0.1815E+06
  31186      1    180     40      -14.26          0.1815E+06
  31187      1    180     41      -13.83          0.1815E+06
  31188      1    180     42      -12.84          0.1815E+06
  31189      1    180     43      -12.83          0.1815E+06
  31190      1    180     44      -12.83          0.1815E+06
  31191      1    180     45      -12.54          0.1815E+06
  31192      1    180     46      -11.74          0.1815E+06
  31193      1    180     47      -10.94          0.1815E+06
  31194      1    180     48      -10.05          0.1815E+06
  31195      1    180     49      -10.05          0.1815E+06
  31196      1    180     50      -9.230          0.1815E+06
  31197      1    180     51      -7.630          0.1815E+06
  31198      1    180     52      -7.280          0.1815E+06
  31199      1    180     53      -6.840          0.1815E+06
  31200      1    180     54      -6.520          0.1815E+06
  31201      1    180     55      -6.520          0.1815E+06
  31202      1    180     56      -5.630          0.1815E+06
  31203      1    180     57      -5.230          0.1815E+06
  31204      1    180     58      -4.330          0.1815E+06
  31205      1    180     59      -3.730          0.1815E+06
  31206      1    180     60      -3.400          0.1815E+06
  31207      1    180     61      -3.400          0.1815E+06
  31208      1    180     62     -0.9300          0.1815E+06
  31209      1    180     63      0.6100          0.1815E+06
  31210      1    180     64      0.6100          0.1815E+06
  31211      1    180     65       1.620          0.1815E+06
  31212      1    180     66       1.620          0.1815E+06
  31213      1    180     67       1.620          0.1815E+06
  31214      1    180     68       1.620          0.1815E+06
  31215      1    180     69       1.630          0.1815E+06
  31216      1    180     70       2.630          0.1815E+06
  31217      1    180     71       3.650          0.1815E+06
  31218      1    180     72       3.650          0.1815E+06
  31219      1    180     73       7.130          0.1815E+06
  31220      1    180     74       5.510          0.1815E+06
  31221      1    180     75       5.960          0.1815E+06
  31222      1    180     76       5.280          0.1815E+06
  31223      1    180     77       10.34          0.1815E+06
  31224      1    180     78       6.840          0.1815E+06
  31225      1    180     79       6.190          0.1815E+06
  31226      1    180     80       6.010          0.1815E+06
  31227      1    180     81       18.10          0.1815E+06
  31228      1    180     82       9.320          0.1815E+06
  31229      1    180     83       3.190          0.1815E+06
  31230      1    180     84       3.190          0.1815E+06
  31231      1    180     85       2.680          0.1815E+06
  31232      1    180     86       3.680          0.1815E+06
  31233      1    180     87       4.700          0.1815E+06
  31234      1    180     88       4.700          0.1815E+06
  31235      1    180     89       4.700          0.1815E+06
  31236      1    180     90       4.700          0.1815E+06
  31237      1    180     91       4.700          0.1815E+06
  31238      1    180     92       4.700          0.1815E+06
  31239      1    180     93       4.710          0.1815E+06
  31240      1    180     94       4.720          0.1815E+06
  31241      1    180     95       4.720          0.1815E+06
  31242      1    180     96       5.220          0.1815E+06
  31243      1    180     97       5.720          0.1815E+06
  31244      1    180     98       4.740          0.1815E+06
  31245      1    180     99       3.740          0.1815E+06
  31246      1    180    100       4.740          0.1815E+06
  31247      1    180    101       4.740          0.1815E+06
  31248      1    180    102       5.740          0.1815E+06
  31249      1    180    103       6.750          0.1815E+06
  31250      1    180    104       6.760          0.1815E+06
  31251      1    180    105       5.760          0.1815E+06
  31252      1    180    106       5.760          0.1815E+06
  31253      1    180    107       5.760          0.1815E+06
  31254      1    180    108       5.760          0.1815E+06
  31255      1    180    109       5.760          0.1815E+06
  31256      1    180    110       5.760          0.1815E+06
  31257      1    180    111       5.750          0.1815E+06
  31258      1    180    112       5.750          0.1815E+06
  31259      1    180    113       5.750          0.1815E+06
  31260      1    180    114       4.750          0.1815E+06
  31261      1    180    115       4.750          0.1815E+06
  31262      1    180    116       4.750          0.1815E+06
  31263      1    180    117       5.730          0.1815E+06
  31264      1    180    118       5.730          0.1815E+06
  31265      1    180    119       5.730          0.1815E+06
  31266      1    180    120       5.780          0.1815E+06
  31267      1    180    121       5.840          0.1815E+06
  31268      1    180    122       5.480          0.1815E+06
  31269      1    180    123       5.530          0.1815E+06
  31270      1    180    124       8.020          0.1815E+06
  31271      1    180    125       8.390          0.1815E+06
  31272      1    180    126       7.420          0.1815E+06
  31273      1    180    127       6.920          0.1815E+06
  31274      1    180    128       6.730          0.1815E+06
  31275      1    180    129       6.440          0.1815E+06
  31276      1    180    130       7.000          0.1815E+06
  31277      1    180    131       7.170          0.1815E+06
  31278      1    180    132       5.550          0.1815E+06
  31279      1    180    133       5.610          0.1815E+06
  31280      1    180    134       5.880          0.1815E+06
  31281      1    180    135       5.820          0.1815E+06
  31282      1    180    136       5.900          0.1815E+06
  31283      1    180    137       5.650          0.1815E+06
  31284      1    180    138       6.700          0.1815E+06
  31285      1    180    139       8.200          0.1815E+06
  31286      1    180    140       9.190          0.1815E+06
  31287      1    180    141       12.27          0.1815E+06
  31288      1    180    142       14.61          0.1815E+06
  31289      1    180    143       13.86          0.1815E+06
  31290      1    180    144       12.36          0.1815E+06
  31291      1    180    145       9.140          0.1815E+06
  31292      1    180    146       8.530          0.1815E+06
  31293      1    180    147       8.940          0.1815E+06
  31294      1    180    148       7.170          0.1815E+06
  31295      1    180    149       9.680          0.1815E+06
  31296      1    180    150       7.380          0.1815E+06
  31297      1    180    151       10.48          0.1815E+06
  31298      1    180    152       10.10          0.1815E+06
  31299      1    180    153       10.56          0.1815E+06
  31300      1    180    154       9.970          0.1815E+06
  31301      1    180    155       9.140          0.1815E+06
  31302      1    180    156       7.960          0.1815E+06
  31303      1    180    157       10.00          0.1815E+06
  31304      1    180    158       7.960          0.1815E+06
  31305      1    180    159       6.380          0.1815E+06
  31306      1    180    160       6.130          0.1815E+06
  31307      1    180    161       6.030          0.1815E+06
  31308      1    180    162       5.650          0.1815E+06
  31309      1    180    163       5.960          0.1815E+06
  31310      1    180    164       5.820          0.1815E+06
  31311      1    180    165       6.110          0.1815E+06
  31312      1    180    166       6.150          0.1815E+06
  31313      1    180    167       6.760          0.1815E+06
  31314      1    180    168       8.130          0.1815E+06
  31315      1    180    169       6.320          0.1815E+06
  31316      1    180    170       6.530          0.1815E+06
  31317      1    180    171       6.760          0.1815E+06
  31318      1    180    172       7.730          0.1815E+06
  31319      1    180    173       7.760          0.1815E+06
  31320      1    180    174       7.960          0.1815E+06
  31321      1    181      1      -15.02          0.1815E+06
  31322      1    181      2      -14.81          0.1815E+06
  31323      1    181      3      -14.81          0.1815E+06
  31324      1    181      4      -14.23          0.1815E+06
  31325      1    181      5      -14.23          0.1815E+06
  31326      1    181      6      -14.23          0.1815E+06
  31327      1    181      7      -14.23          0.1815E+06
  31328      1    181      8      -14.49          0.1815E+06
  31329      1    181      9      -14.49          0.1815E+06
  31330      1    181     10      -14.33          0.1815E+06
  31331      1    181     11      -13.53          0.1815E+06
  31332      1    181     12      -12.71          0.1815E+06
  31333      1    181     13      -10.88          0.1815E+06
  31334      1    181     14      -11.13          0.1815E+06
  31335      1    181     15      -11.13          0.1815E+06
  31336      1    181     16      -11.01          0.1815E+06
  31337      1    181     17      -10.73          0.1815E+06
  31338      1    181     18      -12.44          0.1815E+06
  31339      1    181     19      -11.51          0.1815E+06
  31340      1    181     20      -10.84          0.1815E+06
  31341      1    181     21      -10.84          0.1815E+06
  31342      1    181     22      -13.84          0.1815E+06
  31343      1    181     23      -14.74          0.1815E+06
  31344      1    181     24      -14.89          0.1815E+06
  31345      1    181     25      -15.04          0.1815E+06
  31346      1    181     26      -15.04          0.1815E+06
  31347      1    181     27      -15.59          0.1815E+06
  31348      1    181     28      -15.24          0.1815E+06
  31349      1    181     29      -14.44          0.1815E+06
  31350      1    181     30      -14.34          0.1815E+06
  31351      1    181     31      -14.34          0.1815E+06
  31352      1    181     32      -14.34          0.1815E+06
  31353      1    181     33      -14.04          0.1815E+06
  31354      1    181     34      -14.94          0.1815E+06
  31355      1    181     35      -15.24          0.1815E+06
  31356      1    181     36      -15.07          0.1815E+06
  31357      1    181     37      -14.94          0.1815E+06
  31358      1    181     38      -14.94          0.1815E+06
  31359      1    181     39      -14.34          0.1815E+06
  31360      1    181     40      -14.26          0.1815E+06
  31361      1    181     41      -13.83          0.1815E+06
  31362      1    181     42      -12.84          0.1815E+06
  31363      1    181     43      -12.83          0.1815E+06
  31364      1    181     44      -12.83          0.1815E+06
  31365      1    181     45      -12.54          0.1815E+06
  31366      1    181     46      -11.74          0.1815E+06
  31367      1    181     47      -10.94          0.1815E+06
  31368      1    181     48      -10.05          0.1815E+06
  31369      1    181     49      -10.05          0.1815E+06
  31370      1    181     50      -9.230          0.1815E+06
  31371      1    181     51      -7.630          0.1815E+06
  31372      1    181     52      -7.280          0.1815E+06
  31373      1    181     53      -6.840          0.1815E+06
  31374      1    181     54      -6.520          0.1815E+06
  31375      1    181     55      -6.520          0.1815E+06
  31376      1    181     56      -5.630          0.1815E+06
  31377      1    181     57      -5.230          0.1815E+06
  31378      1    181     58      -4.330          0.1815E+06
  31379      1    181     59      -3.730          0.1815E+06
  31380      1    181     60      -3.400          0.1815E+06
  31381      1    181     61      -3.400          0.1815E+06
  31382      1    181     62     -0.9300          0.1815E+06
  31383      1    181     63      0.6100          0.1815E+06
  31384      1    181     64      0.6100          0.1815E+06
  31385      1    181     65       1.620          0.1815E+06
  31386      1    181     66       1.620          0.1815E+06
  31387      1    181     67       1.620          0.1815E+06
  31388      1    181     68       1.620          0.1815E+06
  31389      1    181     69       1.630          0.1815E+06
  31390      1    181     70       2.630          0.1815E+06
  31391      1    181     71       3.650          0.1815E+06
  31392      1    181     72       3.650          0.1815E+06
  31393      1    181     73       11.35          0.1815E+06
  31394      1    181     74       7.110          0.1815E+06
  31395      1    181     75       6.760          0.1815E+06
  31396      1    181     76       5.010          0.1815E+06
  31397      1    181     77       4.840          0.1815E+06
  31398      1    181     78       8.970          0.1815E+06
  31399      1    181     79       7.420          0.1815E+06
  31400      1    181     80       6.670          0.1815E+06
  31401      1    181     81       16.17          0.1815E+06
  31402      1    181     82       9.710          0.1815E+06
  31403      1    181     83       3.190          0.1815E+06
  31404      1    181     84       3.190          0.1815E+06
  31405      1    181     85       2.680          0.1815E+06
  31406      1    181     86       3.680          0.1815E+06
  31407      1    181     87       4.700          0.1815E+06
  31408      1    181     88       4.700          0.1815E+06
  31409      1    181     89       4.700          0.1815E+06
  31410      1    181     90       4.700          0.1815E+06
  31411      1    181     91       4.700          0.1815E+06
  31412      1    181     92       4.700          0.1815E+06
  31413      1    181     93       4.710          0.1815E+06
  31414      1    181     94       4.720          0.1815E+06
  31415      1    181     95       4.720          0.1815E+06
  31416      1    181     96       5.220          0.1815E+06
  31417      1    181     97       5.720          0.1815E+06
  31418      1    181     98       4.740          0.1815E+06
  31419      1    181     99       3.740          0.1815E+06
  31420      1    181    100       4.740          0.1815E+06
  31421      1    181    101       4.740          0.1815E+06
  31422      1    181    102       5.740          0.1815E+06
  31423      1    181    103       6.750          0.1815E+06
  31424      1    181    104       6.760          0.1815E+06
  31425      1    181    105       5.760          0.1815E+06
  31426      1    181    106       5.760          0.1815E+06
  31427      1    181    107       5.760          0.1815E+06
  31428      1    181    108       5.760          0.1815E+06
  31429      1    181    109       5.760          0.1815E+06
  31430      1    181    110       5.760          0.1815E+06
  31431      1    181    111       5.750          0.1815E+06
  31432      1    181    112       5.750          0.1815E+06
  31433      1    181    113       5.750          0.1815E+06
  31434      1    181    114       4.750          0.1815E+06
  31435      1    181    115       4.750          0.1815E+06
  31436      1    181    116       4.750          0.1815E+06
  31437      1    181    117       5.730          0.1815E+06
  31438      1    181    118       5.730          0.1815E+06
  31439      1    181    119       5.730          0.1815E+06
  31440      1    181    120       7.920          0.1815E+06
  31441      1    181    121       5.050          0.1815E+06
  31442      1    181    122       8.030          0.1815E+06
  31443      1    181    123       8.770          0.1815E+06
  31444      1    181    124       8.920          0.1815E+06
  31445      1    181    125       6.860          0.1815E+06
  31446      1    181    126       5.530          0.1815E+06
  31447      1    181    127       5.710          0.1815E+06
  31448      1    181    128       5.710          0.1815E+06
  31449      1    181    129       6.130          0.1815E+06
  31450      1    181    130       6.170          0.1815E+06
  31451      1    181    131       5.510          0.1815E+06
  31452      1    181    132       8.690          0.1815E+06
  31453      1    181    133       5.480          0.1815E+06
  31454      1    181    134       5.690          0.1815E+06
  31455      1    181    135       5.670          0.1815E+06
  31456      1    181    136       5.610          0.1815E+06
  31457      1    181    137       5.820          0.1815E+06
  31458      1    181    138       6.700          0.1815E+06
  31459      1    181    139       8.200          0.1815E+06
  31460      1    181    140       9.190          0.1815E+06
  31461      1    181    141       10.98          0.1815E+06
  31462      1    181    142       13.64          0.1815E+06
  31463      1    181    143       12.69          0.1815E+06
  31464      1    181    144       11.14          0.1815E+06
  31465      1    181    145       8.610          0.1815E+06
  31466      1    181    146       6.400          0.1815E+06
  31467      1    181    147       6.530          0.1815E+06
  31468      1    181    148       6.340          0.1815E+06
  31469      1    181    149       6.630          0.1815E+06
  31470      1    181    150       7.570          0.1815E+06
  31471      1    181    151       7.360          0.1815E+06
  31472      1    181    152       7.130          0.1815E+06
  31473      1    181    153       7.400          0.1815E+06
  31474      1    181    154       7.110          0.1815E+06
  31475      1    181    155       7.010          0.1815E+06
  31476      1    181    156       7.440          0.1815E+06
  31477      1    181    157       8.440          0.1815E+06
  31478      1    181    158       6.980          0.1815E+06
  31479      1    181    159       6.280          0.1815E+06
  31480      1    181    160       6.170          0.1815E+06
  31481      1    181    161       6.110          0.1815E+06
  31482      1    181    162       6.110          0.1815E+06
  31483      1    181    163       5.760          0.1815E+06
  31484      1    181    164       5.980          0.1815E+06
  31485      1    181    165       6.010          0.1815E+06
  31486      1    181    166       6.300          0.1815E+06
  31487      1    181    167       6.070          0.1815E+06
  31488      1    181    168       6.050          0.1815E+06
  31489      1    181    169       5.800          0.1815E+06
  31490      1    181    170       5.840          0.1815E+06
  31491      1    181    171       6.050          0.1815E+06
  31492      1    181    172       6.130          0.1815E+06
  31493      1    181    173       6.170          0.1815E+06
  31494      1    181    174       6.420          0.1815E+06
  31495      1    182      1      -15.33          0.1815E+06
  31496      1    182      2      -14.93          0.1815E+06
  31497      1    182      3      -14.93          0.1815E+06
  31498      1    182      4      -14.63          0.1815E+06
  31499      1    182      5      -14.43          0.1815E+06
  31500      1    182      6      -14.25          0.1815E+06
  31501      1    182      7      -14.53          0.1815E+06
  31502      1    182      8      -14.73          0.1815E+06
  31503      1    182      9      -14.73          0.1815E+06
  31504      1    182     10      -14.64          0.1815E+06
  31505      1    182     11      -14.53          0.1815E+06
  31506      1    182     12      -13.33          0.1815E+06
  31507      1    182     13      -11.76          0.1815E+06
  31508      1    182     14      -10.13          0.1815E+06
  31509      1    182     15      -10.13          0.1815E+06
  31510      1    182     16      -11.43          0.1815E+06
  31511      1    182     17      -10.83          0.1815E+06
  31512      1    182     18      -12.44          0.1815E+06
  31513      1    182     19      -11.51          0.1815E+06
  31514      1    182     20      -10.84          0.1815E+06
  31515      1    182     21      -10.84          0.1815E+06
  31516      1    182     22      -13.84          0.1815E+06
  31517      1    182     23      -14.45          0.1815E+06
  31518      1    182     24      -14.34          0.1815E+06
  31519      1    182     25      -14.84          0.1815E+06
  31520      1    182     26      -14.84          0.1815E+06
  31521      1    182     27      -14.94          0.1815E+06
  31522      1    182     28      -14.64          0.1815E+06
  31523      1    182     29      -14.64          0.1815E+06
  31524      1    182     30      -14.34          0.1815E+06
  31525      1    182     31      -14.16          0.1815E+06
  31526      1    182     32      -14.16          0.1815E+06
  31527      1    182     33      -13.74          0.1815E+06
  31528      1    182     34      -14.31          0.1815E+06
  31529      1    182     35      -15.02          0.1815E+06
  31530      1    182     36      -15.17          0.1815E+06
  31531      1    182     37      -15.34          0.1815E+06
  31532      1    182     38      -15.34          0.1815E+06
  31533      1    182     39      -14.86          0.1815E+06
  31534      1    182     40      -14.49          0.1815E+06
  31535      1    182     41      -14.14          0.1815E+06
  31536      1    182     42      -12.84          0.1815E+06
  31537      1    182     43      -12.83          0.1815E+06
  31538      1    182     44      -12.83          0.1815E+06
  31539      1    182     45      -12.54          0.1815E+06
  31540      1    182     46      -11.74          0.1815E+06
  31541      1    182     47      -10.82          0.1815E+06
  31542      1    182     48      -10.04          0.1815E+06
  31543      1    182     49      -10.04          0.1815E+06
  31544      1    182     50      -9.570          0.1815E+06
  31545      1    182     51      -8.710          0.1815E+06
  31546      1    182     52      -7.040          0.1815E+06
  31547      1    182     53      -7.840          0.1815E+06
  31548      1    182     54      -7.340          0.1815E+06
  31549      1    182     55      -7.340          0.1815E+06
  31550      1    182     56      -6.590          0.1815E+06
  31551      1    182     57      -5.330          0.1815E+06
  31552      1    182     58      -4.740          0.1815E+06
  31553      1    182     59      -5.030          0.1815E+06
  31554      1    182     60      -4.480          0.1815E+06
  31555      1    182     61      -4.480          0.1815E+06
  31556      1    182     62      -2.370          0.1815E+06
  31557      1    182     63      0.6100          0.1815E+06
  31558      1    182     64      0.6200          0.1815E+06
  31559      1    182     65      0.6200          0.1815E+06
  31560      1    182     66       1.620          0.1815E+06
  31561      1    182     67       1.620          0.1815E+06
  31562      1    182     68       1.620          0.1815E+06
  31563      1    182     69       1.630          0.1815E+06
  31564      1    182     70       2.630          0.1815E+06
  31565      1    182     71       3.650          0.1815E+06
  31566      1    182     72       3.650          0.1815E+06
  31567      1    182     73       5.300          0.1815E+06
  31568      1    182     74       11.10          0.1815E+06
  31569      1    182     75       8.890          0.1815E+06
  31570      1    182     76       5.110          0.1815E+06
  31571      1    182     77       4.710          0.1815E+06
  31572      1    182     78       7.500          0.1815E+06
  31573      1    182     79       7.320          0.1815E+06
  31574      1    182     80       8.110          0.1815E+06
  31575      1    182     81       11.72          0.1815E+06
  31576      1    182     82       16.45          0.1815E+06
  31577      1    182     83       6.680          0.1815E+06
  31578      1    182     84       6.680          0.1815E+06
  31579      1    182     85       1.680          0.1815E+06
  31580      1    182     86       1.690          0.1815E+06
  31581      1    182     87       4.690          0.1815E+06
  31582      1    182     88       4.700          0.1815E+06
  31583      1    182     89       4.700          0.1815E+06
  31584      1    182     90       4.700          0.1815E+06
  31585      1    182     91       4.700          0.1815E+06
  31586      1    182     92       3.710          0.1815E+06
  31587      1    182     93       3.710          0.1815E+06
  31588      1    182     94       4.720          0.1815E+06
  31589      1    182     95       4.720          0.1815E+06
  31590      1    182     96       5.220          0.1815E+06
  31591      1    182     97       5.730          0.1815E+06
  31592      1    182     98       4.740          0.1815E+06
  31593      1    182     99       6.740          0.1815E+06
  31594      1    182    100       9.520          0.1815E+06
  31595      1    182    101       8.380          0.1815E+06
  31596      1    182    102       6.750          0.1815E+06
  31597      1    182    103       6.750          0.1815E+06
  31598      1    182    104       6.750          0.1815E+06
  31599      1    182    105       6.750          0.1815E+06
  31600      1    182    106       6.760          0.1815E+06
  31601      1    182    107       6.760          0.1815E+06
  31602      1    182    108       6.760          0.1815E+06
  31603      1    182    109       6.750          0.1815E+06
  31604      1    182    110       6.750          0.1815E+06
  31605      1    182    111       5.760          0.1815E+06
  31606      1    182    112       6.750          0.1815E+06
  31607      1    182    113       6.750          0.1815E+06
  31608      1    182    114       6.750          0.1815E+06
  31609      1    182    115       5.650          0.1815E+06
  31610      1    182    116       5.530          0.1815E+06
  31611      1    182    117       5.400          0.1815E+06
  31612      1    182    118       5.670          0.1815E+06
  31613      1    182    119       6.030          0.1815E+06
  31614      1    182    120       5.570          0.1815E+06
  31615      1    182    121       5.780          0.1815E+06
  31616      1    182    122       8.630          0.1815E+06
  31617      1    182    123       6.570          0.1815E+06
  31618      1    182    124       6.420          0.1815E+06
  31619      1    182    125       5.820          0.1815E+06
  31620      1    182    126       5.530          0.1815E+06
  31621      1    182    127       5.980          0.1815E+06
  31622      1    182    128       5.860          0.1815E+06
  31623      1    182    129       5.860          0.1815E+06
  31624      1    182    130       5.630          0.1815E+06
  31625      1    182    131       5.670          0.1815E+06
  31626      1    182    132       5.670          0.1815E+06
  31627      1    182    133       8.800          0.1815E+06
  31628      1    182    134       5.590          0.1815E+06
  31629      1    182    135       5.690          0.1815E+06
  31630      1    182    136       5.360          0.1815E+06
  31631      1    182    137       5.610          0.1815E+06
  31632      1    182    138       5.590          0.1815E+06
  31633      1    182    139       6.860          0.1815E+06
  31634      1    182    140       9.750          0.1815E+06
  31635      1    182    141       5.210          0.1815E+06
  31636      1    182    142       6.110          0.1815E+06
  31637      1    182    143       8.940          0.1815E+06
  31638      1    182    144       8.190          0.1815E+06
  31639      1    182    145       6.590          0.1815E+06
  31640      1    182    146       6.400          0.1815E+06
  31641      1    182    147       8.270          0.1815E+06
  31642      1    182    148       7.150          0.1815E+06
  31643      1    182    149       6.510          0.1815E+06
  31644      1    182    150       6.070          0.1815E+06
  31645      1    182    151       8.690          0.1815E+06
  31646      1    182    152       5.840          0.1815E+06
  31647      1    182    153       6.440          0.1815E+06
  31648      1    182    154       9.690          0.1815E+06
  31649      1    182    155       8.690          0.1815E+06
  31650      1    182    156       6.530          0.1815E+06
  31651      1    182    157       7.050          0.1815E+06
  31652      1    182    158       6.570          0.1815E+06
  31653      1    182    159       6.280          0.1815E+06
  31654      1    182    160       6.320          0.1815E+06
  31655      1    182    161       6.340          0.1815E+06
  31656      1    182    162       6.150          0.1815E+06
  31657      1    182    163       6.400          0.1815E+06
  31658      1    182    164       6.070          0.1815E+06
  31659      1    182    165       6.190          0.1815E+06
  31660      1    182    166       5.920          0.1815E+06
  31661      1    182    167       5.980          0.1815E+06
  31662      1    182    168       5.780          0.1815E+06
  31663      1    182    169       6.280          0.1815E+06
  31664      1    182    170       6.070          0.1815E+06
  31665      1    182    171       5.980          0.1815E+06
  31666      1    182    172       5.760          0.1815E+06
  31667      1    182    173       6.050          0.1815E+06
  31668      1    182    174       8.430          0.1815E+06
  31669      1    183      1      -15.24          0.1815E+06
  31670      1    183      2      -14.93          0.1815E+06
  31671      1    183      3      -14.93          0.1815E+06
  31672      1    183      4      -14.74          0.1815E+06
  31673      1    183      5      -14.36          0.1815E+06
  31674      1    183      6      -14.13          0.1815E+06
  31675      1    183      7      -14.28          0.1815E+06
  31676      1    183      8      -14.28          0.1815E+06
  31677      1    183      9      -14.28          0.1815E+06
  31678      1    183     10      -14.38          0.1815E+06
  31679      1    183     11      -15.03          0.1815E+06
  31680      1    183     12      -14.33          0.1815E+06
  31681      1    183     13      -11.76          0.1815E+06
  31682      1    183     14      -10.13          0.1815E+06
  31683      1    183     15      -10.13          0.1815E+06
  31684      1    183     16      -11.43          0.1815E+06
  31685      1    183     17      -10.46          0.1815E+06
  31686      1    183     18      -9.840          0.1815E+06
  31687      1    183     19      -9.790          0.1815E+06
  31688      1    183     20      -10.33          0.1815E+06
  31689      1    183     21      -10.33          0.1815E+06
  31690      1    183     22      -12.54          0.1815E+06
  31691      1    183     23      -14.04          0.1815E+06
  31692      1    183     24      -13.84          0.1815E+06
  31693      1    183     25      -14.29          0.1815E+06
  31694      1    183     26      -14.29          0.1815E+06
  31695      1    183     27      -14.24          0.1815E+06
  31696      1    183     28      -14.54          0.1815E+06
  31697      1    183     29      -14.33          0.1815E+06
  31698      1    183     30      -13.94          0.1815E+06
  31699      1    183     31      -14.04          0.1815E+06
  31700      1    183     32      -14.04          0.1815E+06
  31701      1    183     33      -13.22          0.1815E+06
  31702      1    183     34      -13.54          0.1815E+06
  31703      1    183     35      -14.64          0.1815E+06
  31704      1    183     36      -15.04          0.1815E+06
  31705      1    183     37      -15.00          0.1815E+06
  31706      1    183     38      -15.00          0.1815E+06
  31707      1    183     39      -14.86          0.1815E+06
  31708      1    183     40      -14.49          0.1815E+06
  31709      1    183     41      -14.14          0.1815E+06
  31710      1    183     42      -13.42          0.1815E+06
  31711      1    183     43      -13.34          0.1815E+06
  31712      1    183     44      -13.34          0.1815E+06
  31713      1    183     45      -12.94          0.1815E+06
  31714      1    183     46      -12.16          0.1815E+06
  31715      1    183     47      -11.04          0.1815E+06
  31716      1    183     48      -10.36          0.1815E+06
  31717      1    183     49      -10.36          0.1815E+06
  31718      1    183     50      -9.840          0.1815E+06
  31719      1    183     51      -9.240          0.1815E+06
  31720      1    183     52      -8.240          0.1815E+06
  31721      1    183     53      -7.840          0.1815E+06
  31722      1    183     54      -7.600          0.1815E+06
  31723      1    183     55      -7.600          0.1815E+06
  31724      1    183     56      -7.150          0.1815E+06
  31725      1    183     57      -5.340          0.1815E+06
  31726      1    183     58      -5.340          0.1815E+06
  31727      1    183     59      -4.840          0.1815E+06
  31728      1    183     60      -1.840          0.1815E+06
  31729      1    183     61      -1.840          0.1815E+06
  31730      1    183     62      0.6000          0.1815E+06
  31731      1    183     63      0.6100          0.1815E+06
  31732      1    183     64      0.6200          0.1815E+06
  31733      1    183     65      0.6200          0.1815E+06
  31734      1    183     66      0.6300          0.1815E+06
  31735      1    183     67      0.6300          0.1815E+06
  31736      1    183     68     -0.7300          0.1815E+06
  31737      1    183     69      0.6300          0.1815E+06
  31738      1    183     70      0.6400          0.1815E+06
  31739      1    183     71       1.640          0.1815E+06
  31740      1    183     72       1.640          0.1815E+06
  31741      1    183     73       4.650          0.1815E+06
  31742      1    183     74       8.150          0.1815E+06
  31743      1    183     75       10.40          0.1815E+06
  31744      1    183     76       8.730          0.1815E+06
  31745      1    183     77       4.380          0.1815E+06
  31746      1    183     78       4.420          0.1815E+06
  31747      1    183     79       8.550          0.1815E+06
  31748      1    183     80       7.900          0.1815E+06
  31749      1    183     81       8.100          0.1815E+06
  31750      1    183     82       7.070          0.1815E+06
  31751      1    183     83       8.690          0.1815E+06
  31752      1    183     84       8.690          0.1815E+06
  31753      1    183     85       2.690          0.1815E+06
  31754      1    183     86       2.190          0.1815E+06
  31755      1    183     87       3.690          0.1815E+06
  31756      1    183     88       3.700          0.1815E+06
  31757      1    183     89       4.700          0.1815E+06
  31758      1    183     90       4.700          0.1815E+06
  31759      1    183     91       4.700          0.1815E+06
  31760      1    183     92       3.710          0.1815E+06
  31761      1    183     93       3.710          0.1815E+06
  31762      1    183     94       6.710          0.1815E+06
  31763      1    183     95       6.710          0.1815E+06
  31764      1    183     96       11.56          0.1815E+06
  31765      1    183     97       6.730          0.1815E+06
  31766      1    183     98       7.730          0.1815E+06
  31767      1    183     99       11.06          0.1815E+06
  31768      1    183    100       9.130          0.1815E+06
  31769      1    183    101       9.420          0.1815E+06
  31770      1    183    102       7.900          0.1815E+06
  31771      1    183    103       5.750          0.1815E+06
  31772      1    183    104       5.750          0.1815E+06
  31773      1    183    105       5.750          0.1815E+06
  31774      1    183    106       6.750          0.1815E+06
  31775      1    183    107       6.750          0.1815E+06
  31776      1    183    108       6.760          0.1815E+06
  31777      1    183    109       6.750          0.1815E+06
  31778      1    183    110       6.250          0.1815E+06
  31779      1    183    111       5.780          0.1815E+06
  31780      1    183    112       5.800          0.1815E+06
  31781      1    183    113       6.190          0.1815E+06
  31782      1    183    114       7.570          0.1815E+06
  31783      1    183    115       11.59          0.1815E+06
  31784      1    183    116       8.090          0.1815E+06
  31785      1    183    117       6.650          0.1815E+06
  31786      1    183    118       6.510          0.1815E+06
  31787      1    183    119       6.030          0.1815E+06
  31788      1    183    120       6.130          0.1815E+06
  31789      1    183    121       8.070          0.1815E+06
  31790      1    183    122       8.400          0.1815E+06
  31791      1    183    123       6.690          0.1815E+06
  31792      1    183    124       5.480          0.1815E+06
  31793      1    183    125       5.690          0.1815E+06
  31794      1    183    126       6.050          0.1815E+06
  31795      1    183    127       5.920          0.1815E+06
  31796      1    183    128       5.880          0.1815E+06
  31797      1    183    129       5.550          0.1815E+06
  31798      1    183    130       5.340          0.1815E+06
  31799      1    183    131       5.750          0.1815E+06
  31800      1    183    132       5.710          0.1815E+06
  31801      1    183    133       5.570          0.1815E+06
  31802      1    183    134       6.570          0.1815E+06
  31803      1    183    135       5.900          0.1815E+06
  31804      1    183    136       5.610          0.1815E+06
  31805      1    183    137       5.710          0.1815E+06
  31806      1    183    138       5.480          0.1815E+06
  31807      1    183    139       5.730          0.1815E+06
  31808      1    183    140       5.280          0.1815E+06
  31809      1    183    141       5.360          0.1815E+06
  31810      1    183    142       6.150          0.1815E+06
  31811      1    183    143       5.690          0.1815E+06
  31812      1    183    144       8.190          0.1815E+06
  31813      1    183    145       7.690          0.1815E+06
  31814      1    183    146       8.690          0.1815E+06
  31815      1    183    147       8.690          0.1815E+06
  31816      1    183    148       8.570          0.1815E+06
  31817      1    183    149       7.730          0.1815E+06
  31818      1    183    150       8.690          0.1815E+06
  31819      1    183    151       6.130          0.1815E+06
  31820      1    183    152       6.090          0.1815E+06
  31821      1    183    153       5.820          0.1815E+06
  31822      1    183    154       5.920          0.1815E+06
  31823      1    183    155       5.530          0.1815E+06
  31824      1    183    156       5.230          0.1815E+06
  31825      1    183    157       7.690          0.1815E+06
  31826      1    183    158       6.820          0.1815E+06
  31827      1    183    159       6.480          0.1815E+06
  31828      1    183    160       6.440          0.1815E+06
  31829      1    183    161       6.280          0.1815E+06
  31830      1    183    162       6.400          0.1815E+06
  31831      1    183    163       6.480          0.1815E+06
  31832      1    183    164       6.230          0.1815E+06
  31833      1    183    165       6.130          0.1815E+06
  31834      1    183    166       6.050          0.1815E+06
  31835      1    183    167       6.010          0.1815E+06
  31836      1    183    168       6.070          0.1815E+06
  31837      1    183    169       6.340          0.1815E+06
  31838      1    183    170       6.050          0.1815E+06
  31839      1    183    171       6.090          0.1815E+06
  31840      1    183    172       5.340          0.1815E+06
  31841      1    183    173       6.960          0.1815E+06
  31842      1    183    174       7.530          0.1815E+06
  31843      1    184      1      -15.13          0.1815E+06
  31844      1    184      2      -15.07          0.1815E+06
  31845      1    184      3      -15.07          0.1815E+06
  31846      1    184      4      -14.93          0.1815E+06
  31847      1    184      5      -14.43          0.1815E+06
  31848      1    184      6      -14.30          0.1815E+06
  31849      1    184      7      -13.83          0.1815E+06
  31850      1    184      8      -13.73          0.1815E+06
  31851      1    184      9      -13.73          0.1815E+06
  31852      1    184     10      -14.38          0.1815E+06
  31853      1    184     11      -15.03          0.1815E+06
  31854      1    184     12      -14.33          0.1815E+06
  31855      1    184     13      -13.73          0.1815E+06
  31856      1    184     14      -12.13          0.1815E+06
  31857      1    184     15      -12.13          0.1815E+06
  31858      1    184     16      -11.77          0.1815E+06
  31859      1    184     17      -10.24          0.1815E+06
  31860      1    184     18      -10.05          0.1815E+06
  31861      1    184     19      -10.11          0.1815E+06
  31862      1    184     20      -10.64          0.1815E+06
  31863      1    184     21      -10.64          0.1815E+06
  31864      1    184     22      -11.24          0.1815E+06
  31865      1    184     23      -12.84          0.1815E+06
  31866      1    184     24      -13.74          0.1815E+06
  31867      1    184     25      -14.04          0.1815E+06
  31868      1    184     26      -14.04          0.1815E+06
  31869      1    184     27      -13.84          0.1815E+06
  31870      1    184     28      -13.84          0.1815E+06
  31871      1    184     29      -13.94          0.1815E+06
  31872      1    184     30      -13.71          0.1815E+06
  31873      1    184     31      -13.08          0.1815E+06
  31874      1    184     32      -13.08          0.1815E+06
  31875      1    184     33      -12.95          0.1815E+06
  31876      1    184     34      -13.54          0.1815E+06
  31877      1    184     35      -14.64          0.1815E+06
  31878      1    184     36      -14.94          0.1815E+06
  31879      1    184     37      -15.00          0.1815E+06
  31880      1    184     38      -15.00          0.1815E+06
  31881      1    184     39      -14.84          0.1815E+06
  31882      1    184     40      -14.34          0.1815E+06
  31883      1    184     41      -13.87          0.1815E+06
  31884      1    184     42      -13.54          0.1815E+06
  31885      1    184     43      -13.24          0.1815E+06
  31886      1    184     44      -13.24          0.1815E+06
  31887      1    184     45      -13.02          0.1815E+06
  31888      1    184     46      -12.54          0.1815E+06
  31889      1    184     47      -11.39          0.1815E+06
  31890      1    184     48      -10.64          0.1815E+06
  31891      1    184     49      -10.64          0.1815E+06
  31892      1    184     50      -10.04          0.1815E+06
  31893      1    184     51      -9.610          0.1815E+06
  31894      1    184     52      -8.640          0.1815E+06
  31895      1    184     53      -8.130          0.1815E+06
  31896      1    184     54      -7.840          0.1815E+06
  31897      1    184     55      -7.840          0.1815E+06
  31898      1    184     56      -7.240          0.1815E+06
  31899      1    184     57      -6.240          0.1815E+06
  31900      1    184     58      -5.640          0.1815E+06
  31901      1    184     59      -4.840          0.1815E+06
  31902      1    184     60      -1.840          0.1815E+06
  31903      1    184     61      -1.840          0.1815E+06
  31904      1    184     62      0.6000          0.1815E+06
  31905      1    184     63      0.6100          0.1815E+06
  31906      1    184     64      0.6100          0.1815E+06
  31907      1    184     65      0.6100          0.1815E+06
  31908      1    184     66      0.6200          0.1815E+06
  31909      1    184     67      0.6200          0.1815E+06
  31910      1    184     68      -1.530          0.1815E+06
  31911      1    184     69      -1.030          0.1815E+06
  31912      1    184     70     -0.3000          0.1815E+06
  31913      1    184     71      0.6500          0.1815E+06
  31914      1    184     72      0.6500          0.1815E+06
  31915      1    184     73       2.650          0.1815E+06
  31916      1    184     74       4.650          0.1815E+06
  31917      1    184     75       7.160          0.1815E+06
  31918      1    184     76       8.470          0.1815E+06
  31919      1    184     77       10.68          0.1815E+06
  31920      1    184     78       4.440          0.1815E+06
  31921      1    184     79       10.39          0.1815E+06
  31922      1    184     80       8.890          0.1815E+06
  31923      1    184     81       7.280          0.1815E+06
  31924      1    184     82       6.900          0.1815E+06
  31925      1    184     83       6.680          0.1815E+06
  31926      1    184     84       6.680          0.1815E+06
  31927      1    184     85       2.690          0.1815E+06
  31928      1    184     86       2.190          0.1815E+06
  31929      1    184     87       3.690          0.1815E+06
  31930      1    184     88       3.700          0.1815E+06
  31931      1    184     89       3.700          0.1815E+06
  31932      1    184     90       3.700          0.1815E+06
  31933      1    184     91       4.700          0.1815E+06
  31934      1    184     92       3.710          0.1815E+06
  31935      1    184     93       3.710          0.1815E+06
  31936      1    184     94       4.710          0.1815E+06
  31937      1    184     95       4.710          0.1815E+06
  31938      1    184     96       11.57          0.1815E+06
  31939      1    184     97       6.170          0.1815E+06
  31940      1    184     98       7.820          0.1815E+06
  31941      1    184     99       12.18          0.1815E+06
  31942      1    184    100       8.340          0.1815E+06
  31943      1    184    101       5.570          0.1815E+06
  31944      1    184    102       13.50          0.1815E+06
  31945      1    184    103       6.000          0.1815E+06
  31946      1    184    104       5.840          0.1815E+06
  31947      1    184    105       5.880          0.1815E+06
  31948      1    184    106       5.940          0.1815E+06
  31949      1    184    107       5.820          0.1815E+06
  31950      1    184    108       5.510          0.1815E+06
  31951      1    184    109       5.730          0.1815E+06
  31952      1    184    110       6.250          0.1815E+06
  31953      1    184    111       6.630          0.1815E+06
  31954      1    184    112       8.930          0.1815E+06
  31955      1    184    113       7.690          0.1815E+06
  31956      1    184    114       7.480          0.1815E+06
  31957      1    184    115       8.460          0.1815E+06
  31958      1    184    116       7.440          0.1815E+06
  31959      1    184    117       7.510          0.1815E+06
  31960      1    184    118       6.590          0.1815E+06
  31961      1    184    119       7.550          0.1815E+06
  31962      1    184    120       6.610          0.1815E+06
  31963      1    184    121       6.230          0.1815E+06
  31964      1    184    122       6.090          0.1815E+06
  31965      1    184    123       6.110          0.1815E+06
  31966      1    184    124       5.460          0.1815E+06
  31967      1    184    125       6.050          0.1815E+06
  31968      1    184    126       5.980          0.1815E+06
  31969      1    184    127       5.630          0.1815E+06
  31970      1    184    128       5.940          0.1815E+06
  31971      1    184    129       5.210          0.1815E+06
  31972      1    184    130       5.650          0.1815E+06
  31973      1    184    131       5.860          0.1815E+06
  31974      1    184    132       5.920          0.1815E+06
  31975      1    184    133       5.900          0.1815E+06
  31976      1    184    134       6.900          0.1815E+06
  31977      1    184    135       7.690          0.1815E+06
  31978      1    184    136       6.010          0.1815E+06
  31979      1    184    137       5.590          0.1815E+06
  31980      1    184    138       5.630          0.1815E+06
  31981      1    184    139       5.530          0.1815E+06
  31982      1    184    140       5.710          0.1815E+06
  31983      1    184    141       5.190          0.1815E+06
  31984      1    184    142       5.940          0.1815E+06
  31985      1    184    143       6.170          0.1815E+06
  31986      1    184    144       6.090          0.1815E+06
  31987      1    184    145       5.840          0.1815E+06
  31988      1    184    146       5.690          0.1815E+06
  31989      1    184    147       5.760          0.1815E+06
  31990      1    184    148       6.150          0.1815E+06
  31991      1    184    149       6.320          0.1815E+06
  31992      1    184    150       5.760          0.1815E+06
  31993      1    184    151       6.110          0.1815E+06
  31994      1    184    152       6.150          0.1815E+06
  31995      1    184    153       6.030          0.1815E+06
  31996      1    184    154       6.090          0.1815E+06
  31997      1    184    155       5.900          0.1815E+06
  31998      1    184    156       5.550          0.1815E+06
  31999      1    184    157       5.500          0.1815E+06
  32000      1    184    158       5.760          0.1815E+06
  32001      1    184    159       6.090          0.1815E+06
  32002      1    184    160       6.340          0.1815E+06
  32003      1    184    161       6.460          0.1815E+06
  32004      1    184    162       6.400          0.1815E+06
  32005      1    184    163       6.380          0.1815E+06
  32006      1    184    164       6.070          0.1815E+06
  32007      1    184    165       6.300          0.1815E+06
  32008      1    184    166       6.230          0.1815E+06
  32009      1    184    167       6.150          0.1815E+06
  32010      1    184    168       6.190          0.1815E+06
  32011      1    184    169       6.230          0.1815E+06
  32012      1    184    170       6.110          0.1815E+06
  32013      1    184    171       6.440          0.1815E+06
  32014      1    184    172       7.900          0.1815E+06
  32015      1    184    173       8.680          0.1815E+06
  32016      1    184    174       8.560          0.1815E+06
  32017      1    185      1      -14.93          0.1815E+06
  32018      1    185      2      -15.13          0.1815E+06
  32019      1    185      3      -15.13          0.1815E+06
  32020      1    185      4      -14.99          0.1815E+06
  32021      1    185      5      -14.43          0.1815E+06
  32022      1    185      6      -14.12          0.1815E+06
  32023      1    185      7      -13.83          0.1815E+06
  32024      1    185      8      -13.73          0.1815E+06
  32025      1    185      9      -13.73          0.1815E+06
  32026      1    185     10      -13.80          0.1815E+06
  32027      1    185     11      -13.93          0.1815E+06
  32028      1    185     12      -14.63          0.1815E+06
  32029      1    185     13      -14.43          0.1815E+06
  32030      1    185     14      -13.63          0.1815E+06
  32031      1    185     15      -13.63          0.1815E+06
  32032      1    185     16      -11.94          0.1815E+06
  32033      1    185     17      -10.65          0.1815E+06
  32034      1    185     18      -11.04          0.1815E+06
  32035      1    185     19      -11.04          0.1815E+06
  32036      1    185     20      -11.54          0.1815E+06
  32037      1    185     21      -11.54          0.1815E+06
  32038      1    185     22      -11.29          0.1815E+06
  32039      1    185     23      -10.94          0.1815E+06
  32040      1    185     24      -11.74          0.1815E+06
  32041      1    185     25      -11.94          0.1815E+06
  32042      1    185     26      -11.94          0.1815E+06
  32043      1    185     27      -14.24          0.1815E+06
  32044      1    185     28      -13.95          0.1815E+06
  32045      1    185     29      -13.94          0.1815E+06
  32046      1    185     30      -13.71          0.1815E+06
  32047      1    185     31      -13.08          0.1815E+06
  32048      1    185     32      -13.08          0.1815E+06
  32049      1    185     33      -12.95          0.1815E+06
  32050      1    185     34      -13.45          0.1815E+06
  32051      1    185     35      -13.45          0.1815E+06
  32052      1    185     36      -14.27          0.1815E+06
  32053      1    185     37      -14.35          0.1815E+06
  32054      1    185     38      -14.35          0.1815E+06
  32055      1    185     39      -14.45          0.1815E+06
  32056      1    185     40      -13.84          0.1815E+06
  32057      1    185     41      -13.05          0.1815E+06
  32058      1    185     42      -13.43          0.1815E+06
  32059      1    185     43      -13.34          0.1815E+06
  32060      1    185     44      -13.34          0.1815E+06
  32061      1    185     45      -13.14          0.1815E+06
  32062      1    185     46      -12.14          0.1815E+06
  32063      1    185     47      -11.54          0.1815E+06
  32064      1    185     48      -10.94          0.1815E+06
  32065      1    185     49      -10.94          0.1815E+06
  32066      1    185     50      -10.47          0.1815E+06
  32067      1    185     51      -9.140          0.1815E+06
  32068      1    185     52      -8.710          0.1815E+06
  32069      1    185     53      -8.240          0.1815E+06
  32070      1    185     54      -7.840          0.1815E+06
  32071      1    185     55      -7.840          0.1815E+06
  32072      1    185     56      -7.240          0.1815E+06
  32073      1    185     57      -6.240          0.1815E+06
  32074      1    185     58      -5.640          0.1815E+06
  32075      1    185     59      -5.160          0.1815E+06
  32076      1    185     60      -4.440          0.1815E+06
  32077      1    185     61      -4.440          0.1815E+06
  32078      1    185     62      -2.100          0.1815E+06
  32079      1    185     63      -2.340          0.1815E+06
  32080      1    185     64      -1.940          0.1815E+06
  32081      1    185     65      0.6200          0.1815E+06
  32082      1    185     66      -2.240          0.1815E+06
  32083      1    185     67      -2.240          0.1815E+06
  32084      1    185     68      -1.840          0.1815E+06
  32085      1    185     69      -1.400          0.1815E+06
  32086      1    185     70     -0.6700          0.1815E+06
  32087      1    185     71      0.6400          0.1815E+06
  32088      1    185     72      0.6400          0.1815E+06
  32089      1    185     73      0.6400          0.1815E+06
  32090      1    185     74       2.650          0.1815E+06
  32091      1    185     75       4.650          0.1815E+06
  32092      1    185     76       14.48          0.1815E+06
  32093      1    185     77       13.18          0.1815E+06
  32094      1    185     78       4.110          0.1815E+06
  32095      1    185     79       4.110          0.1815E+06
  32096      1    185     80       12.89          0.1815E+06
  32097      1    185     81       11.60          0.1815E+06
  32098      1    185     82       8.170          0.1815E+06
  32099      1    185     83       6.680          0.1815E+06
  32100      1    185     84       6.680          0.1815E+06
  32101      1    185     85       4.680          0.1815E+06
  32102      1    185     86       3.690          0.1815E+06
  32103      1    185     87       3.700          0.1815E+06
  32104      1    185     88       3.700          0.1815E+06
  32105      1    185     89       3.700          0.1815E+06
  32106      1    185     90       3.700          0.1815E+06
  32107      1    185     91       4.700          0.1815E+06
  32108      1    185     92       4.700          0.1815E+06
  32109      1    185     93       3.710          0.1815E+06
  32110      1    185     94       3.720          0.1815E+06
  32111      1    185     95       3.720          0.1815E+06
  32112      1    185     96       12.53          0.1815E+06
  32113      1    185     97       11.43          0.1815E+06
  32114      1    185     98       8.850          0.1815E+06
  32115      1    185     99       13.14          0.1815E+06
  32116      1    185    100       9.720          0.1815E+06
  32117      1    185    101       6.480          0.1815E+06
  32118      1    185    102       7.230          0.1815E+06
  32119      1    185    103       9.250          0.1815E+06
  32120      1    185    104       7.170          0.1815E+06
  32121      1    185    105       11.07          0.1815E+06
  32122      1    185    106       7.340          0.1815E+06
  32123      1    185    107       7.030          0.1815E+06
  32124      1    185    108       6.280          0.1815E+06
  32125      1    185    109       7.380          0.1815E+06
  32126      1    185    110       7.360          0.1815E+06
  32127      1    185    111       12.26          0.1815E+06
  32128      1    185    112       9.350          0.1815E+06
  32129      1    185    113       8.310          0.1815E+06
  32130      1    185    114       8.960          0.1815E+06
  32131      1    185    115       9.340          0.1815E+06
  32132      1    185    116       7.690          0.1815E+06
  32133      1    185    117       7.710          0.1815E+06
  32134      1    185    118       7.110          0.1815E+06
  32135      1    185    119       7.780          0.1815E+06
  32136      1    185    120       6.440          0.1815E+06
  32137      1    185    121       5.860          0.1815E+06
  32138      1    185    122       6.030          0.1815E+06
  32139      1    185    123       5.710          0.1815E+06
  32140      1    185    124       5.650          0.1815E+06
  32141      1    185    125       5.400          0.1815E+06
  32142      1    185    126       5.320          0.1815E+06
  32143      1    185    127       5.650          0.1815E+06
  32144      1    185    128       5.820          0.1815E+06
  32145      1    185    129       5.780          0.1815E+06
  32146      1    185    130       5.800          0.1815E+06
  32147      1    185    131       5.780          0.1815E+06
  32148      1    185    132       6.000          0.1815E+06
  32149      1    185    133       5.860          0.1815E+06
  32150      1    185    134       6.230          0.1815E+06
  32151      1    185    135       7.480          0.1815E+06
  32152      1    185    136       8.170          0.1815E+06
  32153      1    185    137       5.090          0.1815E+06
  32154      1    185    138       5.530          0.1815E+06
  32155      1    185    139       5.630          0.1815E+06
  32156      1    185    140       5.570          0.1815E+06
  32157      1    185    141       5.730          0.1815E+06
  32158      1    185    142       5.050          0.1815E+06
  32159      1    185    143       6.010          0.1815E+06
  32160      1    185    144       6.280          0.1815E+06
  32161      1    185    145       6.090          0.1815E+06
  32162      1    185    146       5.900          0.1815E+06
  32163      1    185    147       5.800          0.1815E+06
  32164      1    185    148       5.840          0.1815E+06
  32165      1    185    149       6.090          0.1815E+06
  32166      1    185    150       6.150          0.1815E+06
  32167      1    185    151       6.010          0.1815E+06
  32168      1    185    152       5.690          0.1815E+06
  32169      1    185    153       5.320          0.1815E+06
  32170      1    185    154       6.030          0.1815E+06
  32171      1    185    155       6.340          0.1815E+06
  32172      1    185    156       6.090          0.1815E+06
  32173      1    185    157       4.880          0.1815E+06
  32174      1    185    158       5.630          0.1815E+06
  32175      1    185    159       6.320          0.1815E+06
  32176      1    185    160       6.340          0.1815E+06
  32177      1    185    161       6.400          0.1815E+06
  32178      1    185    162       6.400          0.1815E+06
  32179      1    185    163       6.360          0.1815E+06
  32180      1    185    164       6.360          0.1815E+06
  32181      1    185    165       6.440          0.1815E+06
  32182      1    185    166       6.110          0.1815E+06
  32183      1    185    167       6.280          0.1815E+06
  32184      1    185    168       6.260          0.1815E+06
  32185      1    185    169       6.230          0.1815E+06
  32186      1    185    170       6.820          0.1815E+06
  32187      1    185    171       7.440          0.1815E+06
  32188      1    185    172       8.810          0.1815E+06
  32189      1    185    173       9.710          0.1815E+06
  32190      1    185    174       8.930          0.1815E+06
  32191      1    186      1      -14.93          0.1815E+06
  32192      1    186      2      -15.13          0.1815E+06
  32193      1    186      3      -15.13          0.1815E+06
  32194      1    186      4      -14.99          0.1815E+06
  32195      1    186      5      -14.82          0.1815E+06
  32196      1    186      6      -14.13          0.1815E+06
  32197      1    186      7      -13.93          0.1815E+06
  32198      1    186      8      -13.74          0.1815E+06
  32199      1    186      9      -13.74          0.1815E+06
  32200      1    186     10      -13.73          0.1815E+06
  32201      1    186     11      -13.98          0.1815E+06
  32202      1    186     12      -14.13          0.1815E+06
  32203      1    186     13      -14.23          0.1815E+06
  32204      1    186     14      -13.73          0.1815E+06
  32205      1    186     15      -13.73          0.1815E+06
  32206      1    186     16      -9.440          0.1815E+06
  32207      1    186     17      -10.24          0.1815E+06
  32208      1    186     18      -10.94          0.1815E+06
  32209      1    186     19      -11.48          0.1815E+06
  32210      1    186     20      -11.34          0.1815E+06
  32211      1    186     21      -11.34          0.1815E+06
  32212      1    186     22      -10.94          0.1815E+06
  32213      1    186     23      -9.150          0.1815E+06
  32214      1    186     24      -11.74          0.1815E+06
  32215      1    186     25      -11.94          0.1815E+06
  32216      1    186     26      -11.94          0.1815E+06
  32217      1    186     27      -14.24          0.1815E+06
  32218      1    186     28      -13.95          0.1815E+06
  32219      1    186     29      -13.95          0.1815E+06
  32220      1    186     30      -13.64          0.1815E+06
  32221      1    186     31      -13.15          0.1815E+06
  32222      1    186     32      -13.15          0.1815E+06
  32223      1    186     33      -13.45          0.1815E+06
  32224      1    186     34      -13.47          0.1815E+06
  32225      1    186     35      -13.47          0.1815E+06
  32226      1    186     36      -13.85          0.1815E+06
  32227      1    186     37      -13.94          0.1815E+06
  32228      1    186     38      -13.94          0.1815E+06
  32229      1    186     39      -13.84          0.1815E+06
  32230      1    186     40      -13.35          0.1815E+06
  32231      1    186     41      -13.08          0.1815E+06
  32232      1    186     42      -13.75          0.1815E+06
  32233      1    186     43      -13.75          0.1815E+06
  32234      1    186     44      -13.75          0.1815E+06
  32235      1    186     45      -13.32          0.1815E+06
  32236      1    186     46      -12.14          0.1815E+06
  32237      1    186     47      -11.83          0.1815E+06
  32238      1    186     48      -11.34          0.1815E+06
  32239      1    186     49      -11.34          0.1815E+06
  32240      1    186     50      -10.47          0.1815E+06
  32241      1    186     51      -9.140          0.1815E+06
  32242      1    186     52      -8.710          0.1815E+06
  32243      1    186     53      -8.240          0.1815E+06
  32244      1    186     54      -8.040          0.1815E+06
  32245      1    186     55      -8.040          0.1815E+06
  32246      1    186     56      -7.240          0.1815E+06
  32247      1    186     57      -6.540          0.1815E+06
  32248      1    186     58      -5.630          0.1815E+06
  32249      1    186     59      -5.040          0.1815E+06
  32250      1    186     60      -4.340          0.1815E+06
  32251      1    186     61      -4.340          0.1815E+06
  32252      1    186     62      -3.740          0.1815E+06
  32253      1    186     63      -3.740          0.1815E+06
  32254      1    186     64      -3.540          0.1815E+06
  32255      1    186     65      -2.940          0.1815E+06
  32256      1    186     66      -2.740          0.1815E+06
  32257      1    186     67      -2.740          0.1815E+06
  32258      1    186     68      -2.170          0.1815E+06
  32259      1    186     69      -1.620          0.1815E+06
  32260      1    186     70     -0.9400          0.1815E+06
  32261      1    186     71      0.6400          0.1815E+06
  32262      1    186     72      0.6400          0.1815E+06
  32263      1    186     73      0.6400          0.1815E+06
  32264      1    186     74      0.6500          0.1815E+06
  32265      1    186     75       4.650          0.1815E+06
  32266      1    186     76       7.300          0.1815E+06
  32267      1    186     77       14.64          0.1815E+06
  32268      1    186     78       9.530          0.1815E+06
  32269      1    186     79       4.050          0.1815E+06
  32270      1    186     80       7.360          0.1815E+06
  32271      1    186     81       6.550          0.1815E+06
  32272      1    186     82       13.00          0.1815E+06
  32273      1    186     83       7.460          0.1815E+06
  32274      1    186     84       2.170          0.1815E+06
  32275      1    186     85       4.680          0.1815E+06
  32276      1    186     86       4.690          0.1815E+06
  32277      1    186     87       3.690          0.1815E+06
  32278      1    186     88       3.690          0.1815E+06
  32279      1    186     89       3.700          0.1815E+06
  32280      1    186     90       3.700          0.1815E+06
  32281      1    186     91       3.700          0.1815E+06
  32282      1    186     92       4.710          0.1815E+06
  32283      1    186     93       4.710          0.1815E+06
  32284      1    186     94       3.710          0.1815E+06
  32285      1    186     95       3.710          0.1815E+06
  32286      1    186     96       4.210          0.1815E+06
  32287      1    186     97       15.27          0.1815E+06
  32288      1    186     98       9.260          0.1815E+06
  32289      1    186     99       11.69          0.1815E+06
  32290      1    186    100       10.75          0.1815E+06
  32291      1    186    101       6.480          0.1815E+06
  32292      1    186    102       9.890          0.1815E+06
  32293      1    186    103       11.52          0.1815E+06
  32294      1    186    104       10.80          0.1815E+06
  32295      1    186    105       9.400          0.1815E+06
  32296      1    186    106       8.510          0.1815E+06
  32297      1    186    107       8.350          0.1815E+06
  32298      1    186    108       7.260          0.1815E+06
  32299      1    186    109       7.510          0.1815E+06
  32300      1    186    110       8.570          0.1815E+06
  32301      1    186    111       12.48          0.1815E+06
  32302      1    186    112       11.77          0.1815E+06
  32303      1    186    113       8.930          0.1815E+06
  32304      1    186    114       8.360          0.1815E+06
  32305      1    186    115       8.890          0.1815E+06
  32306      1    186    116       10.32          0.1815E+06
  32307      1    186    117       8.310          0.1815E+06
  32308      1    186    118       8.600          0.1815E+06
  32309      1    186    119       7.440          0.1815E+06
  32310      1    186    120       6.050          0.1815E+06
  32311      1    186    121       6.440          0.1815E+06
  32312      1    186    122       5.880          0.1815E+06
  32313      1    186    123       6.050          0.1815E+06
  32314      1    186    124       6.010          0.1815E+06
  32315      1    186    125       5.940          0.1815E+06
  32316      1    186    126       5.820          0.1815E+06
  32317      1    186    127       5.820          0.1815E+06
  32318      1    186    128       5.510          0.1815E+06
  32319      1    186    129       5.710          0.1815E+06
  32320      1    186    130       5.820          0.1815E+06
  32321      1    186    131       5.900          0.1815E+06
  32322      1    186    132       6.090          0.1815E+06
  32323      1    186    133       5.940          0.1815E+06
  32324      1    186    134       6.460          0.1815E+06
  32325      1    186    135       5.900          0.1815E+06
  32326      1    186    136       6.590          0.1815E+06
  32327      1    186    137       6.590          0.1815E+06
  32328      1    186    138       7.650          0.1815E+06
  32329      1    186    139       5.590          0.1815E+06
  32330      1    186    140       5.610          0.1815E+06
  32331      1    186    141       5.630          0.1815E+06
  32332      1    186    142       5.510          0.1815E+06
  32333      1    186    143       5.300          0.1815E+06
  32334      1    186    144       6.050          0.1815E+06
  32335      1    186    145       5.980          0.1815E+06
  32336      1    186    146       6.110          0.1815E+06
  32337      1    186    147       5.630          0.1815E+06
  32338      1    186    148       5.880          0.1815E+06
  32339      1    186    149       5.670          0.1815E+06
  32340      1    186    150       5.550          0.1815E+06
  32341      1    186    151       5.360          0.1815E+06
  32342      1    186    152       6.340          0.1815E+06
  32343      1    186    153       6.070          0.1815E+06
  32344      1    186    154       5.860          0.1815E+06
  32345      1    186    155       5.760          0.1815E+06
  32346      1    186    156       6.000          0.1815E+06
  32347      1    186    157       5.960          0.1815E+06
  32348      1    186    158       5.510          0.1815E+06
  32349      1    186    159       6.110          0.1815E+06
  32350      1    186    160       5.690          0.1815E+06
  32351      1    186    161       5.110          0.1815E+06
  32352      1    186    162       6.230          0.1815E+06
  32353      1    186    163       6.530          0.1815E+06
  32354      1    186    164       6.420          0.1815E+06
  32355      1    186    165       6.340          0.1815E+06
  32356      1    186    166       6.280          0.1815E+06
  32357      1    186    167       7.090          0.1815E+06
  32358      1    186    168       6.380          0.1815E+06
  32359      1    186    169       7.090          0.1815E+06
  32360      1    186    170       7.380          0.1815E+06
  32361      1    186    171       8.060          0.1815E+06
  32362      1    186    172       8.640          0.1815E+06
  32363      1    186    173       8.890          0.1815E+06
  32364      1    186    174       8.850          0.1815E+06
  32365      1    187      1      -14.93          0.1815E+06
  32366      1    187      2      -15.13          0.1815E+06
  32367      1    187      3      -15.13          0.1815E+06
  32368      1    187      4      -14.99          0.1815E+06
  32369      1    187      5      -14.82          0.1815E+06
  32370      1    187      6      -14.13          0.1815E+06
  32371      1    187      7      -13.93          0.1815E+06
  32372      1    187      8      -13.74          0.1815E+06
  32373      1    187      9      -13.74          0.1815E+06
  32374      1    187     10      -13.73          0.1815E+06
  32375      1    187     11      -13.98          0.1815E+06
  32376      1    187     12      -14.13          0.1815E+06
  32377      1    187     13      -14.23          0.1815E+06
  32378      1    187     14      -13.73          0.1815E+06
  32379      1    187     15      -13.73          0.1815E+06
  32380      1    187     16      -9.440          0.1815E+06
  32381      1    187     17      -10.24          0.1815E+06
  32382      1    187     18      -10.94          0.1815E+06
  32383      1    187     19      -11.48          0.1815E+06
  32384      1    187     20      -11.34          0.1815E+06
  32385      1    187     21      -11.34          0.1815E+06
  32386      1    187     22      -10.94          0.1815E+06
  32387      1    187     23      -9.150          0.1815E+06
  32388      1    187     24      -11.74          0.1815E+06
  32389      1    187     25      -11.94          0.1815E+06
  32390      1    187     26      -11.94          0.1815E+06
  32391      1    187     27      -14.24          0.1815E+06
  32392      1    187     28      -13.95          0.1815E+06
  32393      1    187     29      -13.95          0.1815E+06
  32394      1    187     30      -13.64          0.1815E+06
  32395      1    187     31      -13.15          0.1815E+06
  32396      1    187     32      -13.15          0.1815E+06
  32397      1    187     33      -13.45          0.1815E+06
  32398      1    187     34      -13.47          0.1815E+06
  32399      1    187     35      -13.47          0.1815E+06
  32400      1    187     36      -13.85          0.1815E+06
  32401      1    187     37      -13.94          0.1815E+06
  32402      1    187     38      -13.94          0.1815E+06
  32403      1    187     39      -13.84          0.1815E+06
  32404      1    187     40      -13.35          0.1815E+06
  32405      1    187     41      -13.08          0.1815E+06
  32406      1    187     42      -13.75          0.1815E+06
  32407      1    187     43      -13.75          0.1815E+06
  32408      1    187     44      -13.75          0.1815E+06
  32409      1    187     45      -13.32          0.1815E+06
  32410      1    187     46      -12.14          0.1815E+06
  32411      1    187     47      -11.83          0.1815E+06
  32412      1    187     48      -11.34          0.1815E+06
  32413      1    187     49      -11.34          0.1815E+06
  32414      1    187     50      -10.47          0.1815E+06
  32415      1    187     51      -9.140          0.1815E+06
  32416      1    187     52      -8.710          0.1815E+06
  32417      1    187     53      -8.240          0.1815E+06
  32418      1    187     54      -8.040          0.1815E+06
  32419      1    187     55      -8.040          0.1815E+06
  32420      1    187     56      -7.240          0.1815E+06
  32421      1    187     57      -6.540          0.1815E+06
  32422      1    187     58      -5.630          0.1815E+06
  32423      1    187     59      -5.040          0.1815E+06
  32424      1    187     60      -4.340          0.1815E+06
  32425      1    187     61      -4.340          0.1815E+06
  32426      1    187     62      -3.740          0.1815E+06
  32427      1    187     63      -3.740          0.1815E+06
  32428      1    187     64      -3.540          0.1815E+06
  32429      1    187     65      -2.940          0.1815E+06
  32430      1    187     66      -2.740          0.1815E+06
  32431      1    187     67      -2.740          0.1815E+06
  32432      1    187     68      -2.170          0.1815E+06
  32433      1    187     69      -1.620          0.1815E+06
  32434      1    187     70     -0.9400          0.1815E+06
  32435      1    187     71      0.6400          0.1815E+06
  32436      1    187     72      0.6400          0.1815E+06
  32437      1    187     73      0.6400          0.1815E+06
  32438      1    187     74      0.6500          0.1815E+06
  32439      1    187     75       4.650          0.1815E+06
  32440      1    187     76       4.820          0.1815E+06
  32441      1    187     77       15.78          0.1815E+06
  32442      1    187     78       13.35          0.1815E+06
  32443      1    187     79       9.810          0.1815E+06
  32444      1    187     80       7.340          0.1815E+06
  32445      1    187     81       6.820          0.1815E+06
  32446      1    187     82       15.77          0.1815E+06
  32447      1    187     83       7.570          0.1815E+06
  32448      1    187     84       2.070          0.1815E+06
  32449      1    187     85       4.680          0.1815E+06
  32450      1    187     86       4.690          0.1815E+06
  32451      1    187     87       3.690          0.1815E+06
  32452      1    187     88       3.690          0.1815E+06
  32453      1    187     89       3.700          0.1815E+06
  32454      1    187     90       3.700          0.1815E+06
  32455      1    187     91       3.700          0.1815E+06
  32456      1    187     92       4.710          0.1815E+06
  32457      1    187     93       4.710          0.1815E+06
  32458      1    187     94       3.710          0.1815E+06
  32459      1    187     95       3.710          0.1815E+06
  32460      1    187     96       4.210          0.1815E+06
  32461      1    187     97       16.81          0.1815E+06
  32462      1    187     98       11.02          0.1815E+06
  32463      1    187     99       10.84          0.1815E+06
  32464      1    187    100       12.01          0.1815E+06
  32465      1    187    101       6.530          0.1815E+06
  32466      1    187    102       6.110          0.1815E+06
  32467      1    187    103       9.420          0.1815E+06
  32468      1    187    104       9.360          0.1815E+06
  32469      1    187    105       7.960          0.1815E+06
  32470      1    187    106       9.810          0.1815E+06
  32471      1    187    107       8.310          0.1815E+06
  32472      1    187    108       8.730          0.1815E+06
  32473      1    187    109       7.860          0.1815E+06
  32474      1    187    110       8.350          0.1815E+06
  32475      1    187    111       8.270          0.1815E+06
  32476      1    187    112       9.000          0.1815E+06
  32477      1    187    113       11.52          0.1815E+06
  32478      1    187    114       9.350          0.1815E+06
  32479      1    187    115       9.300          0.1815E+06
  32480      1    187    116       8.250          0.1815E+06
  32481      1    187    117       8.350          0.1815E+06
  32482      1    187    118       9.300          0.1815E+06
  32483      1    187    119       7.550          0.1815E+06
  32484      1    187    120       6.760          0.1815E+06
  32485      1    187    121       6.510          0.1815E+06
  32486      1    187    122       6.130          0.1815E+06
  32487      1    187    123       5.780          0.1815E+06
  32488      1    187    124       5.860          0.1815E+06
  32489      1    187    125       5.920          0.1815E+06
  32490      1    187    126       5.820          0.1815E+06
  32491      1    187    127       5.860          0.1815E+06
  32492      1    187    128       5.920          0.1815E+06
  32493      1    187    129       5.920          0.1815E+06
  32494      1    187    130       5.860          0.1815E+06
  32495      1    187    131       6.030          0.1815E+06
  32496      1    187    132       5.920          0.1815E+06
  32497      1    187    133       5.760          0.1815E+06
  32498      1    187    134       6.000          0.1815E+06
  32499      1    187    135       6.300          0.1815E+06
  32500      1    187    136       6.110          0.1815E+06
  32501      1    187    137       6.210          0.1815E+06
  32502      1    187    138       6.070          0.1815E+06
  32503      1    187    139       7.800          0.1815E+06
  32504      1    187    140       6.250          0.1815E+06
  32505      1    187    141       5.800          0.1815E+06
  32506      1    187    142       5.920          0.1815E+06
  32507      1    187    143       5.500          0.1815E+06
  32508      1    187    144       5.670          0.1815E+06
  32509      1    187    145       5.920          0.1815E+06
  32510      1    187    146       5.360          0.1815E+06
  32511      1    187    147       5.500          0.1815E+06
  32512      1    187    148       5.440          0.1815E+06
  32513      1    187    149       6.150          0.1815E+06
  32514      1    187    150       6.260          0.1815E+06
  32515      1    187    151       6.130          0.1815E+06
  32516      1    187    152       5.980          0.1815E+06
  32517      1    187    153       6.110          0.1815E+06
  32518      1    187    154       6.380          0.1815E+06
  32519      1    187    155       6.150          0.1815E+06
  32520      1    187    156       6.000          0.1815E+06
  32521      1    187    157       5.980          0.1815E+06
  32522      1    187    158       6.050          0.1815E+06
  32523      1    187    159       6.170          0.1815E+06
  32524      1    187    160       5.730          0.1815E+06
  32525      1    187    161       6.030          0.1815E+06
  32526      1    187    162       6.630          0.1815E+06
  32527      1    187    163       6.260          0.1815E+06
  32528      1    187    164       6.750          0.1815E+06
  32529      1    187    165       6.440          0.1815E+06
  32530      1    187    166       6.610          0.1815E+06
  32531      1    187    167       7.130          0.1815E+06
  32532      1    187    168       6.110          0.1815E+06
  32533      1    187    169       5.750          0.1815E+06
  32534      1    187    170       7.050          0.1815E+06
  32535      1    187    171       7.920          0.1815E+06
  32536      1    187    172       8.090          0.1815E+06
  32537      1    187    173       7.690          0.1815E+06
  32538      1    187    174       8.270          0.1815E+06
  32539      1    188      1      -14.73          0.1815E+06
  32540      1    188      2      -14.85          0.1815E+06
  32541      1    188      3      -14.85          0.1815E+06
  32542      1    188      4      -14.83          0.1815E+06
  32543      1    188      5      -14.93          0.1815E+06
  32544      1    188      6      -14.42          0.1815E+06
  32545      1    188      7      -14.13          0.1815E+06
  32546      1    188      8      -13.93          0.1815E+06
  32547      1    188      9      -13.93          0.1815E+06
  32548      1    188     10      -13.93          0.1815E+06
  32549      1    188     11      -13.93          0.1815E+06
  32550      1    188     12      -13.93          0.1815E+06
  32551      1    188     13      -14.11          0.1815E+06
  32552      1    188     14      -14.02          0.1815E+06
  32553      1    188     15      -14.02          0.1815E+06
  32554      1    188     16      -13.53          0.1815E+06
  32555      1    188     17      -12.36          0.1815E+06
  32556      1    188     18      -10.74          0.1815E+06
  32557      1    188     19      -11.34          0.1815E+06
  32558      1    188     20      -11.34          0.1815E+06
  32559      1    188     21      -11.34          0.1815E+06
  32560      1    188     22      -10.94          0.1815E+06
  32561      1    188     23      -9.150          0.1815E+06
  32562      1    188     24      -10.84          0.1815E+06
  32563      1    188     25      -13.25          0.1815E+06
  32564      1    188     26      -13.25          0.1815E+06
  32565      1    188     27      -14.15          0.1815E+06
  32566      1    188     28      -14.05          0.1815E+06
  32567      1    188     29      -13.85          0.1815E+06
  32568      1    188     30      -13.95          0.1815E+06
  32569      1    188     31      -13.95          0.1815E+06
  32570      1    188     32      -13.95          0.1815E+06
  32571      1    188     33      -13.72          0.1815E+06
  32572      1    188     34      -13.55          0.1815E+06
  32573      1    188     35      -13.85          0.1815E+06
  32574      1    188     36      -13.68          0.1815E+06
  32575      1    188     37      -13.75          0.1815E+06
  32576      1    188     38      -13.75          0.1815E+06
  32577      1    188     39      -13.55          0.1815E+06
  32578      1    188     40      -13.16          0.1815E+06
  32579      1    188     41      -12.85          0.1815E+06
  32580      1    188     42      -13.55          0.1815E+06
  32581      1    188     43      -13.67          0.1815E+06
  32582      1    188     44      -13.67          0.1815E+06
  32583      1    188     45      -13.32          0.1815E+06
  32584      1    188     46      -12.14          0.1815E+06
  32585      1    188     47      -11.83          0.1815E+06
  32586      1    188     48      -11.34          0.1815E+06
  32587      1    188     49      -11.34          0.1815E+06
  32588      1    188     50      -10.74          0.1815E+06
  32589      1    188     51      -9.480          0.1815E+06
  32590      1    188     52      -9.040          0.1815E+06
  32591      1    188     53      -8.640          0.1815E+06
  32592      1    188     54      -8.440          0.1815E+06
  32593      1    188     55      -8.440          0.1815E+06
  32594      1    188     56      -7.740          0.1815E+06
  32595      1    188     57      -6.830          0.1815E+06
  32596      1    188     58      -5.740          0.1815E+06
  32597      1    188     59      -5.640          0.1815E+06
  32598      1    188     60      -4.440          0.1815E+06
  32599      1    188     61      -4.440          0.1815E+06
  32600      1    188     62      -4.140          0.1815E+06
  32601      1    188     63      -3.950          0.1815E+06
  32602      1    188     64      -3.750          0.1815E+06
  32603      1    188     65      -3.150          0.1815E+06
  32604      1    188     66      -2.520          0.1815E+06
  32605      1    188     67      -2.520          0.1815E+06
  32606      1    188     68      -2.150          0.1815E+06
  32607      1    188     69      -1.780          0.1815E+06
  32608      1    188     70     -0.1300          0.1815E+06
  32609      1    188     71      0.6400          0.1815E+06
  32610      1    188     72      0.6400          0.1815E+06
  32611      1    188     73      0.6400          0.1815E+06
  32612      1    188     74      0.6500          0.1815E+06
  32613      1    188     75       3.650          0.1815E+06
  32614      1    188     76       5.660          0.1815E+06
  32615      1    188     77       5.400          0.1815E+06
  32616      1    188     78       15.84          0.1815E+06
  32617      1    188     79       7.710          0.1815E+06
  32618      1    188     80       6.630          0.1815E+06
  32619      1    188     81       7.610          0.1815E+06
  32620      1    188     82       14.25          0.1815E+06
  32621      1    188     83       6.780          0.1815E+06
  32622      1    188     84       1.860          0.1815E+06
  32623      1    188     85       2.690          0.1815E+06
  32624      1    188     86       4.690          0.1815E+06
  32625      1    188     87       4.690          0.1815E+06
  32626      1    188     88       4.690          0.1815E+06
  32627      1    188     89       3.700          0.1815E+06
  32628      1    188     90       3.700          0.1815E+06
  32629      1    188     91       3.700          0.1815E+06
  32630      1    188     92       3.710          0.1815E+06
  32631      1    188     93       4.710          0.1815E+06
  32632      1    188     94       4.710          0.1815E+06
  32633      1    188     95       4.710          0.1815E+06
  32634      1    188     96       4.210          0.1815E+06
  32635      1    188     97       4.920          0.1815E+06
  32636      1    188     98       16.76          0.1815E+06
  32637      1    188     99       11.96          0.1815E+06
  32638      1    188    100       15.69          0.1815E+06
  32639      1    188    101       9.600          0.1815E+06
  32640      1    188    102       7.210          0.1815E+06
  32641      1    188    103       9.900          0.1815E+06
  32642      1    188    104       10.53          0.1815E+06
  32643      1    188    105       9.530          0.1815E+06
  32644      1    188    106       8.470          0.1815E+06
  32645      1    188    107       8.710          0.1815E+06
  32646      1    188    108       8.810          0.1815E+06
  32647      1    188    109       8.600          0.1815E+06
  32648      1    188    110       9.690          0.1815E+06
  32649      1    188    111       8.890          0.1815E+06
  32650      1    188    112       11.77          0.1815E+06
  32651      1    188    113       8.820          0.1815E+06
  32652      1    188    114       8.860          0.1815E+06
  32653      1    188    115       9.930          0.1815E+06
  32654      1    188    116       8.820          0.1815E+06
  32655      1    188    117       8.560          0.1815E+06
  32656      1    188    118       8.880          0.1815E+06
  32657      1    188    119       7.760          0.1815E+06
  32658      1    188    120       7.110          0.1815E+06
  32659      1    188    121       7.280          0.1815E+06
  32660      1    188    122       7.130          0.1815E+06
  32661      1    188    123       6.610          0.1815E+06
  32662      1    188    124       6.460          0.1815E+06
  32663      1    188    125       5.730          0.1815E+06
  32664      1    188    126       6.070          0.1815E+06
  32665      1    188    127       6.090          0.1815E+06
  32666      1    188    128       5.820          0.1815E+06
  32667      1    188    129       6.090          0.1815E+06
  32668      1    188    130       5.840          0.1815E+06
  32669      1    188    131       5.820          0.1815E+06
  32670      1    188    132       5.730          0.1815E+06
  32671      1    188    133       6.070          0.1815E+06
  32672      1    188    134       6.130          0.1815E+06
  32673      1    188    135       6.030          0.1815E+06
  32674      1    188    136       6.440          0.1815E+06
  32675      1    188    137       6.360          0.1815E+06
  32676      1    188    138       6.510          0.1815E+06
  32677      1    188    139       6.730          0.1815E+06
  32678      1    188    140       6.260          0.1815E+06
  32679      1    188    141       8.720          0.1815E+06
  32680      1    188    142       5.710          0.1815E+06
  32681      1    188    143       5.780          0.1815E+06
  32682      1    188    144       5.340          0.1815E+06
  32683      1    188    145       5.480          0.1815E+06
  32684      1    188    146       5.420          0.1815E+06
  32685      1    188    147       6.110          0.1815E+06
  32686      1    188    148       5.940          0.1815E+06
  32687      1    188    149       5.860          0.1815E+06
  32688      1    188    150       5.630          0.1815E+06
  32689      1    188    151       5.730          0.1815E+06
  32690      1    188    152       5.530          0.1815E+06
  32691      1    188    153       6.130          0.1815E+06
  32692      1    188    154       6.400          0.1815E+06
  32693      1    188    155       6.250          0.1815E+06
  32694      1    188    156       5.800          0.1815E+06
  32695      1    188    157       5.860          0.1815E+06
  32696      1    188    158       7.800          0.1815E+06
  32697      1    188    159       6.590          0.1815E+06
  32698      1    188    160       6.190          0.1815E+06
  32699      1    188    161       6.650          0.1815E+06
  32700      1    188    162       6.380          0.1815E+06
  32701      1    188    163       6.820          0.1815E+06
  32702      1    188    164       7.630          0.1815E+06
  32703      1    188    165       8.210          0.1815E+06
  32704      1    188    166       6.860          0.1815E+06
  32705      1    188    167       6.690          0.1815E+06
  32706      1    188    168       6.030          0.1815E+06
  32707      1    188    169       5.820          0.1815E+06
  32708      1    188    170       6.210          0.1815E+06
  32709      1    188    171       6.280          0.1815E+06
  32710      1    188    172       7.510          0.1815E+06
  32711      1    188    173       8.140          0.1815E+06
  32712      1    188    174       7.590          0.1815E+06
  32713      1    189      1      -14.43          0.1815E+06
  32714      1    189      2      -14.63          0.1815E+06
  32715      1    189      3      -14.63          0.1815E+06
  32716      1    189      4      -14.71          0.1815E+06
  32717      1    189      5      -14.80          0.1815E+06
  32718      1    189      6      -14.63          0.1815E+06
  32719      1    189      7      -14.37          0.1815E+06
  32720      1    189      8      -14.32          0.1815E+06
  32721      1    189      9      -14.32          0.1815E+06
  32722      1    189     10      -14.33          0.1815E+06
  32723      1    189     11      -14.27          0.1815E+06
  32724      1    189     12      -14.33          0.1815E+06
  32725      1    189     13      -14.14          0.1815E+06
  32726      1    189     14      -14.04          0.1815E+06
  32727      1    189     15      -14.04          0.1815E+06
  32728      1    189     16      -13.53          0.1815E+06
  32729      1    189     17      -12.36          0.1815E+06
  32730      1    189     18      -10.74          0.1815E+06
  32731      1    189     19      -11.34          0.1815E+06
  32732      1    189     20      -10.22          0.1815E+06
  32733      1    189     21      -10.22          0.1815E+06
  32734      1    189     22      -9.100          0.1815E+06
  32735      1    189     23      -9.150          0.1815E+06
  32736      1    189     24      -10.25          0.1815E+06
  32737      1    189     25      -13.75          0.1815E+06
  32738      1    189     26      -13.75          0.1815E+06
  32739      1    189     27      -14.25          0.1815E+06
  32740      1    189     28      -13.65          0.1815E+06
  32741      1    189     29      -13.65          0.1815E+06
  32742      1    189     30      -13.93          0.1815E+06
  32743      1    189     31      -13.75          0.1815E+06
  32744      1    189     32      -13.75          0.1815E+06
  32745      1    189     33      -13.75          0.1815E+06
  32746      1    189     34      -13.85          0.1815E+06
  32747      1    189     35      -13.55          0.1815E+06
  32748      1    189     36      -13.75          0.1815E+06
  32749      1    189     37      -13.75          0.1815E+06
  32750      1    189     38      -13.75          0.1815E+06
  32751      1    189     39      -13.48          0.1815E+06
  32752      1    189     40      -12.88          0.1815E+06
  32753      1    189     41      -12.85          0.1815E+06
  32754      1    189     42      -13.55          0.1815E+06
  32755      1    189     43      -13.67          0.1815E+06
  32756      1    189     44      -13.67          0.1815E+06
  32757      1    189     45      -13.09          0.1815E+06
  32758      1    189     46      -12.55          0.1815E+06
  32759      1    189     47      -12.34          0.1815E+06
  32760      1    189     48      -11.84          0.1815E+06
  32761      1    189     49      -11.84          0.1815E+06
  32762      1    189     50      -11.16          0.1815E+06
  32763      1    189     51      -9.840          0.1815E+06
  32764      1    189     52      -9.640          0.1815E+06
  32765      1    189     53      -9.040          0.1815E+06
  32766      1    189     54      -8.740          0.1815E+06
  32767      1    189     55      -8.740          0.1815E+06
  32768      1    189     56      -7.550          0.1815E+06
  32769      1    189     57      -6.740          0.1815E+06
  32770      1    189     58      -5.940          0.1815E+06
  32771      1    189     59      -5.150          0.1815E+06
  32772      1    189     60      -4.490          0.1815E+06
  32773      1    189     61      -4.490          0.1815E+06
  32774      1    189     62      -4.450          0.1815E+06
  32775      1    189     63      -4.450          0.1815E+06
  32776      1    189     64      -4.020          0.1815E+06
  32777      1    189     65      -3.150          0.1815E+06
  32778      1    189     66      -2.520          0.1815E+06
  32779      1    189     67      -2.520          0.1815E+06
  32780      1    189     68      -2.150          0.1815E+06
  32781      1    189     69      -1.780          0.1815E+06
  32782      1    189     70     -0.9900          0.1815E+06
  32783      1    189     71     -0.8100          0.1815E+06
  32784      1    189     72     -0.8100          0.1815E+06
  32785      1    189     73     -0.9400          0.1815E+06
  32786      1    189     74      0.6500          0.1815E+06
  32787      1    189     75       2.650          0.1815E+06
  32788      1    189     76       3.660          0.1815E+06
  32789      1    189     77       5.660          0.1815E+06
  32790      1    189     78       5.660          0.1815E+06
  32791      1    189     79       8.160          0.1815E+06
  32792      1    189     80       10.85          0.1815E+06
  32793      1    189     81       9.110          0.1815E+06
  32794      1    189     82       12.18          0.1815E+06
  32795      1    189     83       5.480          0.1815E+06
  32796      1    189     84       2.250          0.1815E+06
  32797      1    189     85       2.690          0.1815E+06
  32798      1    189     86       3.690          0.1815E+06
  32799      1    189     87       4.700          0.1815E+06
  32800      1    189     88       4.700          0.1815E+06
  32801      1    189     89       4.700          0.1815E+06
  32802      1    189     90       4.700          0.1815E+06
  32803      1    189     91       3.700          0.1815E+06
  32804      1    189     92       3.710          0.1815E+06
  32805      1    189     93       4.710          0.1815E+06
  32806      1    189     94       4.710          0.1815E+06
  32807      1    189     95       4.710          0.1815E+06
  32808      1    189     96       2.720          0.1815E+06
  32809      1    189     97       1.720          0.1815E+06
  32810      1    189     98       4.720          0.1815E+06
  32811      1    189     99       15.36          0.1815E+06
  32812      1    189    100       16.07          0.1815E+06
  32813      1    189    101       10.13          0.1815E+06
  32814      1    189    102       10.72          0.1815E+06
  32815      1    189    103       10.02          0.1815E+06
  32816      1    189    104       10.22          0.1815E+06
  32817      1    189    105       8.720          0.1815E+06
  32818      1    189    106       8.260          0.1815E+06
  32819      1    189    107       10.10          0.1815E+06
  32820      1    189    108       10.75          0.1815E+06
  32821      1    189    109       10.09          0.1815E+06
  32822      1    189    110       9.310          0.1815E+06
  32823      1    189    111       9.310          0.1815E+06
  32824      1    189    112       8.480          0.1815E+06
  32825      1    189    113       9.560          0.1815E+06
  32826      1    189    114       12.55          0.1815E+06
  32827      1    189    115       14.80          0.1815E+06
  32828      1    189    116       17.37          0.1815E+06
  32829      1    189    117       10.18          0.1815E+06
  32830      1    189    118       8.770          0.1815E+06
  32831      1    189    119       8.020          0.1815E+06
  32832      1    189    120       7.590          0.1815E+06
  32833      1    189    121       7.510          0.1815E+06
  32834      1    189    122       7.800          0.1815E+06
  32835      1    189    123       7.250          0.1815E+06
  32836      1    189    124       6.380          0.1815E+06
  32837      1    189    125       6.190          0.1815E+06
  32838      1    189    126       5.980          0.1815E+06
  32839      1    189    127       6.380          0.1815E+06
  32840      1    189    128       6.320          0.1815E+06
  32841      1    189    129       6.050          0.1815E+06
  32842      1    189    130       6.070          0.1815E+06
  32843      1    189    131       5.860          0.1815E+06
  32844      1    189    132       5.780          0.1815E+06
  32845      1    189    133       5.820          0.1815E+06
  32846      1    189    134       6.110          0.1815E+06
  32847      1    189    135       6.150          0.1815E+06
  32848      1    189    136       6.260          0.1815E+06
  32849      1    189    137       6.110          0.1815E+06
  32850      1    189    138       6.420          0.1815E+06
  32851      1    189    139       6.210          0.1815E+06
  32852      1    189    140       6.260          0.1815E+06
  32853      1    189    141       8.170          0.1815E+06
  32854      1    189    142       8.520          0.1815E+06
  32855      1    189    143       6.280          0.1815E+06
  32856      1    189    144       6.050          0.1815E+06
  32857      1    189    145       6.030          0.1815E+06
  32858      1    189    146       6.090          0.1815E+06
  32859      1    189    147       5.820          0.1815E+06
  32860      1    189    148       5.710          0.1815E+06
  32861      1    189    149       5.800          0.1815E+06
  32862      1    189    150       5.800          0.1815E+06
  32863      1    189    151       7.000          0.1815E+06
  32864      1    189    152       6.800          0.1815E+06
  32865      1    189    153       5.860          0.1815E+06
  32866      1    189    154       5.940          0.1815E+06
  32867      1    189    155       5.980          0.1815E+06
  32868      1    189    156       5.800          0.1815E+06
  32869      1    189    157       5.710          0.1815E+06
  32870      1    189    158       7.130          0.1815E+06
  32871      1    189    159       6.170          0.1815E+06
  32872      1    189    160       6.960          0.1815E+06
  32873      1    189    161       6.530          0.1815E+06
  32874      1    189    162       6.460          0.1815E+06
  32875      1    189    163       7.920          0.1815E+06
  32876      1    189    164       9.630          0.1815E+06
  32877      1    189    165       9.400          0.1815E+06
  32878      1    189    166       8.510          0.1815E+06
  32879      1    189    167       7.130          0.1815E+06
  32880      1    189    168       6.820          0.1815E+06
  32881      1    189    169       6.190          0.1815E+06
  32882      1    189    170       6.880          0.1815E+06
  32883      1    189    171       7.210          0.1815E+06
  32884      1    189    172       7.150          0.1815E+06
  32885      1    189    173       7.800          0.1815E+06
  32886      1    189    174       7.840          0.1815E+06
  32887      1    190      1      -14.47          0.1815E+06
  32888      1    190      2      -14.58          0.1815E+06
  32889      1    190      3      -14.58          0.1815E+06
  32890      1    190      4      -14.63          0.1815E+06
  32891      1    190      5      -14.72          0.1815E+06
  32892      1    190      6      -14.62          0.1815E+06
  32893      1    190      7      -14.43          0.1815E+06
  32894      1    190      8      -14.53          0.1815E+06
  32895      1    190      9      -14.53          0.1815E+06
  32896      1    190     10      -14.43          0.1815E+06
  32897      1    190     11      -14.27          0.1815E+06
  32898      1    190     12      -14.33          0.1815E+06
  32899      1    190     13      -14.14          0.1815E+06
  32900      1    190     14      -13.74          0.1815E+06
  32901      1    190     15      -13.74          0.1815E+06
  32902      1    190     16      -13.54          0.1815E+06
  32903      1    190     17      -13.34          0.1815E+06
  32904      1    190     18      -9.240          0.1815E+06
  32905      1    190     19      -10.42          0.1815E+06
  32906      1    190     20      -10.25          0.1815E+06
  32907      1    190     21      -10.25          0.1815E+06
  32908      1    190     22      -10.55          0.1815E+06
  32909      1    190     23      -9.950          0.1815E+06
  32910      1    190     24      -9.450          0.1815E+06
  32911      1    190     25      -11.77          0.1815E+06
  32912      1    190     26      -11.77          0.1815E+06
  32913      1    190     27      -13.70          0.1815E+06
  32914      1    190     28      -13.55          0.1815E+06
  32915      1    190     29      -13.59          0.1815E+06
  32916      1    190     30      -13.75          0.1815E+06
  32917      1    190     31      -13.75          0.1815E+06
  32918      1    190     32      -13.75          0.1815E+06
  32919      1    190     33      -13.95          0.1815E+06
  32920      1    190     34      -13.85          0.1815E+06
  32921      1    190     35      -13.55          0.1815E+06
  32922      1    190     36      -13.75          0.1815E+06
  32923      1    190     37      -13.75          0.1815E+06
  32924      1    190     38      -13.75          0.1815E+06
  32925      1    190     39      -13.48          0.1815E+06
  32926      1    190     40      -12.95          0.1815E+06
  32927      1    190     41      -12.86          0.1815E+06
  32928      1    190     42      -13.26          0.1815E+06
  32929      1    190     43      -13.55          0.1815E+06
  32930      1    190     44      -13.55          0.1815E+06
  32931      1    190     45      -12.97          0.1815E+06
  32932      1    190     46      -12.54          0.1815E+06
  32933      1    190     47      -12.54          0.1815E+06
  32934      1    190     48      -11.97          0.1815E+06
  32935      1    190     49      -11.97          0.1815E+06
  32936      1    190     50      -10.94          0.1815E+06
  32937      1    190     51      -10.26          0.1815E+06
  32938      1    190     52      -9.870          0.1815E+06
  32939      1    190     53      -9.240          0.1815E+06
  32940      1    190     54      -8.350          0.1815E+06
  32941      1    190     55      -8.350          0.1815E+06
  32942      1    190     56      -7.950          0.1815E+06
  32943      1    190     57      -4.550          0.1815E+06
  32944      1    190     58      -5.850          0.1815E+06
  32945      1    190     59      -4.710          0.1815E+06
  32946      1    190     60      -4.490          0.1815E+06
  32947      1    190     61      -4.490          0.1815E+06
  32948      1    190     62      -4.450          0.1815E+06
  32949      1    190     63      -4.450          0.1815E+06
  32950      1    190     64      -4.020          0.1815E+06
  32951      1    190     65      -3.150          0.1815E+06
  32952      1    190     66      -2.100          0.1815E+06
  32953      1    190     67      -2.100          0.1815E+06
  32954      1    190     68      -2.040          0.1815E+06
  32955      1    190     69      -1.950          0.1815E+06
  32956      1    190     70      -1.630          0.1815E+06
  32957      1    190     71      -1.540          0.1815E+06
  32958      1    190     72      -1.540          0.1815E+06
  32959      1    190     73      -1.140          0.1815E+06
  32960      1    190     74      0.6400          0.1815E+06
  32961      1    190     75      0.6600          0.1815E+06
  32962      1    190     76       1.650          0.1815E+06
  32963      1    190     77       3.650          0.1815E+06
  32964      1    190     78       3.650          0.1815E+06
  32965      1    190     79       4.660          0.1815E+06
  32966      1    190     80       11.02          0.1815E+06
  32967      1    190     81       9.180          0.1815E+06
  32968      1    190     82       8.900          0.1815E+06
  32969      1    190     83       9.890          0.1815E+06
  32970      1    190     84       1.870          0.1815E+06
  32971      1    190     85       3.690          0.1815E+06
  32972      1    190     86       3.690          0.1815E+06
  32973      1    190     87       4.700          0.1815E+06
  32974      1    190     88       4.700          0.1815E+06
  32975      1    190     89       4.700          0.1815E+06
  32976      1    190     90       4.700          0.1815E+06
  32977      1    190     91       3.700          0.1815E+06
  32978      1    190     92       4.700          0.1815E+06
  32979      1    190     93       4.700          0.1815E+06
  32980      1    190     94       3.720          0.1815E+06
  32981      1    190     95       3.720          0.1815E+06
  32982      1    190     96       3.720          0.1815E+06
  32983      1    190     97       2.720          0.1815E+06
  32984      1    190     98       2.710          0.1815E+06
  32985      1    190     99       15.23          0.1815E+06
  32986      1    190    100       14.52          0.1815E+06
  32987      1    190    101       10.19          0.1815E+06
  32988      1    190    102       9.800          0.1815E+06
  32989      1    190    103       12.15          0.1815E+06
  32990      1    190    104       10.57          0.1815E+06
  32991      1    190    105       8.970          0.1815E+06
  32992      1    190    106       8.630          0.1815E+06
  32993      1    190    107       8.520          0.1815E+06
  32994      1    190    108       8.920          0.1815E+06
  32995      1    190    109       11.43          0.1815E+06
  32996      1    190    110       9.150          0.1815E+06
  32997      1    190    111       8.560          0.1815E+06
  32998      1    190    112       8.770          0.1815E+06
  32999      1    190    113       8.650          0.1815E+06
  33000      1    190    114       15.47          0.1815E+06
  33001      1    190    115       12.77          0.1815E+06
  33002      1    190    116       15.69          0.1815E+06
  33003      1    190    117       10.77          0.1815E+06
  33004      1    190    118       9.000          0.1815E+06
  33005      1    190    119       8.600          0.1815E+06
  33006      1    190    120       8.350          0.1815E+06
  33007      1    190    121       7.780          0.1815E+06
  33008      1    190    122       8.470          0.1815E+06
  33009      1    190    123       7.780          0.1815E+06
  33010      1    190    124       6.630          0.1815E+06
  33011      1    190    125       6.150          0.1815E+06
  33012      1    190    126       6.380          0.1815E+06
  33013      1    190    127       6.170          0.1815E+06
  33014      1    190    128       6.150          0.1815E+06
  33015      1    190    129       6.420          0.1815E+06
  33016      1    190    130       6.190          0.1815E+06
  33017      1    190    131       5.760          0.1815E+06
  33018      1    190    132       6.050          0.1815E+06
  33019      1    190    133       6.130          0.1815E+06
  33020      1    190    134       6.210          0.1815E+06
  33021      1    190    135       5.820          0.1815E+06
  33022      1    190    136       6.190          0.1815E+06
  33023      1    190    137       6.000          0.1815E+06
  33024      1    190    138       5.980          0.1815E+06
  33025      1    190    139       5.960          0.1815E+06
  33026      1    190    140       6.150          0.1815E+06
  33027      1    190    141       6.510          0.1815E+06
  33028      1    190    142       6.300          0.1815E+06
  33029      1    190    143       7.550          0.1815E+06
  33030      1    190    144       7.400          0.1815E+06
  33031      1    190    145       8.060          0.1815E+06
  33032      1    190    146       7.670          0.1815E+06
  33033      1    190    147       6.400          0.1815E+06
  33034      1    190    148       6.340          0.1815E+06
  33035      1    190    149       6.230          0.1815E+06
  33036      1    190    150       6.510          0.1815E+06
  33037      1    190    151       6.300          0.1815E+06
  33038      1    190    152       6.510          0.1815E+06
  33039      1    190    153       5.820          0.1815E+06
  33040      1    190    154       5.960          0.1815E+06
  33041      1    190    155       7.900          0.1815E+06
  33042      1    190    156       9.380          0.1815E+06
  33043      1    190    157       8.720          0.1815E+06
  33044      1    190    158       7.670          0.1815E+06
  33045      1    190    159       6.190          0.1815E+06
  33046      1    190    160       6.130          0.1815E+06
  33047      1    190    161       7.030          0.1815E+06
  33048      1    190    162       6.260          0.1815E+06
  33049      1    190    163       7.170          0.1815E+06
  33050      1    190    164       9.650          0.1815E+06
  33051      1    190    165       9.770          0.1815E+06
  33052      1    190    166       9.720          0.1815E+06
  33053      1    190    167       8.770          0.1815E+06
  33054      1    190    168       7.510          0.1815E+06
  33055      1    190    169       6.900          0.1815E+06
  33056      1    190    170       7.400          0.1815E+06
  33057      1    190    171       7.780          0.1815E+06
  33058      1    190    172       7.980          0.1815E+06
  33059      1    190    173       8.300          0.1815E+06
  33060      1    190    174       9.640          0.1815E+06
  33061      1    191      1      -14.63          0.1815E+06
  33062      1    191      2      -14.63          0.1815E+06
  33063      1    191      3      -14.63          0.1815E+06
  33064      1    191      4      -14.63          0.1815E+06
  33065      1    191      5      -14.73          0.1815E+06
  33066      1    191      6      -14.62          0.1815E+06
  33067      1    191      7      -14.43          0.1815E+06
  33068      1    191      8      -14.53          0.1815E+06
  33069      1    191      9      -14.53          0.1815E+06
  33070      1    191     10      -14.43          0.1815E+06
  33071      1    191     11      -14.53          0.1815E+06
  33072      1    191     12      -14.34          0.1815E+06
  33073      1    191     13      -14.05          0.1815E+06
  33074      1    191     14      -13.64          0.1815E+06
  33075      1    191     15      -13.64          0.1815E+06
  33076      1    191     16      -13.64          0.1815E+06
  33077      1    191     17      -13.30          0.1815E+06
  33078      1    191     18      -11.76          0.1815E+06
  33079      1    191     19      -10.75          0.1815E+06
  33080      1    191     20      -9.980          0.1815E+06
  33081      1    191     21      -9.980          0.1815E+06
  33082      1    191     22      -9.100          0.1815E+06
  33083      1    191     23      -9.250          0.1815E+06
  33084      1    191     24      -8.630          0.1815E+06
  33085      1    191     25      -9.750          0.1815E+06
  33086      1    191     26      -9.750          0.1815E+06
  33087      1    191     27      -12.55          0.1815E+06
  33088      1    191     28      -13.40          0.1815E+06
  33089      1    191     29      -13.35          0.1815E+06
  33090      1    191     30      -13.55          0.1815E+06
  33091      1    191     31      -13.75          0.1815E+06
  33092      1    191     32      -13.75          0.1815E+06
  33093      1    191     33      -13.95          0.1815E+06
  33094      1    191     34      -13.85          0.1815E+06
  33095      1    191     35      -13.75          0.1815E+06
  33096      1    191     36      -13.79          0.1815E+06
  33097      1    191     37      -13.85          0.1815E+06
  33098      1    191     38      -13.85          0.1815E+06
  33099      1    191     39      -13.55          0.1815E+06
  33100      1    191     40      -13.16          0.1815E+06
  33101      1    191     41      -12.85          0.1815E+06
  33102      1    191     42      -13.05          0.1815E+06
  33103      1    191     43      -13.45          0.1815E+06
  33104      1    191     44      -13.45          0.1815E+06
  33105      1    191     45      -12.45          0.1815E+06
  33106      1    191     46      -12.45          0.1815E+06
  33107      1    191     47      -12.14          0.1815E+06
  33108      1    191     48      -11.74          0.1815E+06
  33109      1    191     49      -11.74          0.1815E+06
  33110      1    191     50      -11.01          0.1815E+06
  33111      1    191     51      -10.44          0.1815E+06
  33112      1    191     52      -10.04          0.1815E+06
  33113      1    191     53      -9.210          0.1815E+06
  33114      1    191     54      -8.550          0.1815E+06
  33115      1    191     55      -8.550          0.1815E+06
  33116      1    191     56      -7.950          0.1815E+06
  33117      1    191     57      -4.550          0.1815E+06
  33118      1    191     58      -5.850          0.1815E+06
  33119      1    191     59      -4.710          0.1815E+06
  33120      1    191     60      -4.550          0.1815E+06
  33121      1    191     61      -4.550          0.1815E+06
  33122      1    191     62      -4.650          0.1815E+06
  33123      1    191     63      -4.110          0.1815E+06
  33124      1    191     64      -2.950          0.1815E+06
  33125      1    191     65      -3.150          0.1815E+06
  33126      1    191     66      -2.610          0.1815E+06
  33127      1    191     67      -2.610          0.1815E+06
  33128      1    191     68      -2.430          0.1815E+06
  33129      1    191     69      -2.120          0.1815E+06
  33130      1    191     70      -1.940          0.1815E+06
  33131      1    191     71      -1.740          0.1815E+06
  33132      1    191     72      -1.740          0.1815E+06
  33133      1    191     73      -1.740          0.1815E+06
  33134      1    191     74     -0.9400          0.1815E+06
  33135      1    191     75      0.6500          0.1815E+06
  33136      1    191     76      0.6600          0.1815E+06
  33137      1    191     77       1.670          0.1815E+06
  33138      1    191     78       1.670          0.1815E+06
  33139      1    191     79       2.670          0.1815E+06
  33140      1    191     80       5.670          0.1815E+06
  33141      1    191     81       12.31          0.1815E+06
  33142      1    191     82       8.190          0.1815E+06
  33143      1    191     83       7.690          0.1815E+06
  33144      1    191     84       3.470          0.1815E+06
  33145      1    191     85       3.690          0.1815E+06
  33146      1    191     86       2.690          0.1815E+06
  33147      1    191     87       3.190          0.1815E+06
  33148      1    191     88       4.690          0.1815E+06
  33149      1    191     89       4.700          0.1815E+06
  33150      1    191     90       4.700          0.1815E+06
  33151      1    191     91       4.710          0.1815E+06
  33152      1    191     92       4.710          0.1815E+06
  33153      1    191     93       4.710          0.1815E+06
  33154      1    191     94       3.710          0.1815E+06
  33155      1    191     95       3.710          0.1815E+06
  33156      1    191     96       3.710          0.1815E+06
  33157      1    191     97       3.720          0.1815E+06
  33158      1    191     98       2.720          0.1815E+06
  33159      1    191     99       6.230          0.1815E+06
  33160      1    191    100       19.68          0.1815E+06
  33161      1    191    101       15.84          0.1815E+06
  33162      1    191    102       10.67          0.1815E+06
  33163      1    191    103       7.440          0.1815E+06
  33164      1    191    104       8.130          0.1815E+06
  33165      1    191    105       9.420          0.1815E+06
  33166      1    191    106       9.140          0.1815E+06
  33167      1    191    107       9.110          0.1815E+06
  33168      1    191    108       9.060          0.1815E+06
  33169      1    191    109       9.070          0.1815E+06
  33170      1    191    110       9.430          0.1815E+06
  33171      1    191    111       9.100          0.1815E+06
  33172      1    191    112       9.560          0.1815E+06
  33173      1    191    113       9.020          0.1815E+06
  33174      1    191    114       11.06          0.1815E+06
  33175      1    191    115       17.30          0.1815E+06
  33176      1    191    116       12.75          0.1815E+06
  33177      1    191    117       16.52          0.1815E+06
  33178      1    191    118       12.88          0.1815E+06
  33179      1    191    119       9.720          0.1815E+06
  33180      1    191    120       8.390          0.1815E+06
  33181      1    191    121       8.050          0.1815E+06
  33182      1    191    122       7.980          0.1815E+06
  33183      1    191    123       7.760          0.1815E+06
  33184      1    191    124       7.250          0.1815E+06
  33185      1    191    125       6.940          0.1815E+06
  33186      1    191    126       6.570          0.1815E+06
  33187      1    191    127       7.110          0.1815E+06
  33188      1    191    128       6.760          0.1815E+06
  33189      1    191    129       6.800          0.1815E+06
  33190      1    191    130       6.530          0.1815E+06
  33191      1    191    131       6.360          0.1815E+06
  33192      1    191    132       6.210          0.1815E+06
  33193      1    191    133       6.030          0.1815E+06
  33194      1    191    134       6.360          0.1815E+06
  33195      1    191    135       7.400          0.1815E+06
  33196      1    191    136       6.050          0.1815E+06
  33197      1    191    137       6.150          0.1815E+06
  33198      1    191    138       6.090          0.1815E+06
  33199      1    191    139       5.940          0.1815E+06
  33200      1    191    140       6.030          0.1815E+06
  33201      1    191    141       6.260          0.1815E+06
  33202      1    191    142       6.170          0.1815E+06
  33203      1    191    143       6.670          0.1815E+06
  33204      1    191    144       6.400          0.1815E+06
  33205      1    191    145       5.940          0.1815E+06
  33206      1    191    146       6.230          0.1815E+06
  33207      1    191    147       5.920          0.1815E+06
  33208      1    191    148       6.260          0.1815E+06
  33209      1    191    149       5.940          0.1815E+06
  33210      1    191    150       6.280          0.1815E+06
  33211      1    191    151       6.210          0.1815E+06
  33212      1    191    152       6.820          0.1815E+06
  33213      1    191    153       6.090          0.1815E+06
  33214      1    191    154       7.530          0.1815E+06
  33215      1    191    155       7.900          0.1815E+06
  33216      1    191    156       7.650          0.1815E+06
  33217      1    191    157       7.280          0.1815E+06
  33218      1    191    158       6.710          0.1815E+06
  33219      1    191    159       6.190          0.1815E+06
  33220      1    191    160       6.510          0.1815E+06
  33221      1    191    161       6.510          0.1815E+06
  33222      1    191    162       6.070          0.1815E+06
  33223      1    191    163       8.960          0.1815E+06
  33224      1    191    164       10.18          0.1815E+06
  33225      1    191    165       10.98          0.1815E+06
  33226      1    191    166       11.03          0.1815E+06
  33227      1    191    167       11.32          0.1815E+06
  33228      1    191    168       9.940          0.1815E+06
  33229      1    191    169       8.310          0.1815E+06
  33230      1    191    170       9.390          0.1815E+06
  33231      1    191    171       9.640          0.1815E+06
  33232      1    191    172       9.380          0.1815E+06
  33233      1    191    173       9.000          0.1815E+06
  33234      1    191    174       11.26          0.1815E+06
  33235      1    192      1      -14.63          0.1815E+06
  33236      1    192      2      -14.63          0.1815E+06
  33237      1    192      3      -14.63          0.1815E+06
  33238      1    192      4      -14.63          0.1815E+06
  33239      1    192      5      -14.73          0.1815E+06
  33240      1    192      6      -14.63          0.1815E+06
  33241      1    192      7      -14.49          0.1815E+06
  33242      1    192      8      -14.50          0.1815E+06
  33243      1    192      9      -14.50          0.1815E+06
  33244      1    192     10      -14.43          0.1815E+06
  33245      1    192     11      -14.42          0.1815E+06
  33246      1    192     12      -14.20          0.1815E+06
  33247      1    192     13      -13.94          0.1815E+06
  33248      1    192     14      -13.94          0.1815E+06
  33249      1    192     15      -13.94          0.1815E+06
  33250      1    192     16      -13.68          0.1815E+06
  33251      1    192     17      -13.45          0.1815E+06
  33252      1    192     18      -13.15          0.1815E+06
  33253      1    192     19      -12.85          0.1815E+06
  33254      1    192     20      -11.15          0.1815E+06
  33255      1    192     21      -11.15          0.1815E+06
  33256      1    192     22      -9.650          0.1815E+06
  33257      1    192     23      -9.360          0.1815E+06
  33258      1    192     24      -8.950          0.1815E+06
  33259      1    192     25      -10.99          0.1815E+06
  33260      1    192     26      -10.99          0.1815E+06
  33261      1    192     27      -12.55          0.1815E+06
  33262      1    192     28      -13.40          0.1815E+06
  33263      1    192     29      -13.35          0.1815E+06
  33264      1    192     30      -13.55          0.1815E+06
  33265      1    192     31      -13.85          0.1815E+06
  33266      1    192     32      -13.85          0.1815E+06
  33267      1    192     33      -13.65          0.1815E+06
  33268      1    192     34      -13.67          0.1815E+06
  33269      1    192     35      -13.50          0.1815E+06
  33270      1    192     36      -13.55          0.1815E+06
  33271      1    192     37      -13.75          0.1815E+06
  33272      1    192     38      -13.75          0.1815E+06
  33273      1    192     39      -13.55          0.1815E+06
  33274      1    192     40      -13.55          0.1815E+06
  33275      1    192     41      -13.15          0.1815E+06
  33276      1    192     42      -12.93          0.1815E+06
  33277      1    192     43      -12.45          0.1815E+06
  33278      1    192     44      -12.45          0.1815E+06
  33279      1    192     45      -12.25          0.1815E+06
  33280      1    192     46      -11.98          0.1815E+06
  33281      1    192     47      -11.65          0.1815E+06
  33282      1    192     48      -11.74          0.1815E+06
  33283      1    192     49      -11.74          0.1815E+06
  33284      1    192     50      -11.34          0.1815E+06
  33285      1    192     51      -10.44          0.1815E+06
  33286      1    192     52      -10.04          0.1815E+06
  33287      1    192     53      -9.210          0.1815E+06
  33288      1    192     54      -8.550          0.1815E+06
  33289      1    192     55      -8.550          0.1815E+06
  33290      1    192     56      -8.250          0.1815E+06
  33291      1    192     57      -7.250          0.1815E+06
  33292      1    192     58      -6.650          0.1815E+06
  33293      1    192     59      -4.850          0.1815E+06
  33294      1    192     60      -4.650          0.1815E+06
  33295      1    192     61      -4.650          0.1815E+06
  33296      1    192     62      -4.570          0.1815E+06
  33297      1    192     63      -3.850          0.1815E+06
  33298      1    192     64      -3.250          0.1815E+06
  33299      1    192     65      -3.260          0.1815E+06
  33300      1    192     66      -3.090          0.1815E+06
  33301      1    192     67      -3.090          0.1815E+06
  33302      1    192     68      -2.950          0.1815E+06
  33303      1    192     69      -2.450          0.1815E+06
  33304      1    192     70      -2.050          0.1815E+06
  33305      1    192     71      -2.340          0.1815E+06
  33306      1    192     72      -2.340          0.1815E+06
  33307      1    192     73      -2.140          0.1815E+06
  33308      1    192     74      -1.640          0.1815E+06
  33309      1    192     75      0.6500          0.1815E+06
  33310      1    192     76      0.6600          0.1815E+06
  33311      1    192     77       1.670          0.1815E+06
  33312      1    192     78       1.670          0.1815E+06
  33313      1    192     79       3.670          0.1815E+06
  33314      1    192     80       5.670          0.1815E+06
  33315      1    192     81       8.720          0.1815E+06
  33316      1    192     82       12.23          0.1815E+06
  33317      1    192     83       8.560          0.1815E+06
  33318      1    192     84       7.070          0.1815E+06
  33319      1    192     85       1.440          0.1815E+06
  33320      1    192     86       2.690          0.1815E+06
  33321      1    192     87       2.690          0.1815E+06
  33322      1    192     88       2.690          0.1815E+06
  33323      1    192     89       4.700          0.1815E+06
  33324      1    192     90       4.700          0.1815E+06
  33325      1    192     91       4.700          0.1815E+06
  33326      1    192     92       4.700          0.1815E+06
  33327      1    192     93       3.710          0.1815E+06
  33328      1    192     94       3.720          0.1815E+06
  33329      1    192     95       3.720          0.1815E+06
  33330      1    192     96       3.720          0.1815E+06
  33331      1    192     97       3.720          0.1815E+06
  33332      1    192     98       3.720          0.1815E+06
  33333      1    192     99       3.730          0.1815E+06
  33334      1    192    100       9.980          0.1815E+06
  33335      1    192    101       15.35          0.1815E+06
  33336      1    192    102       11.72          0.1815E+06
  33337      1    192    103       7.570          0.1815E+06
  33338      1    192    104       10.10          0.1815E+06
  33339      1    192    105       9.590          0.1815E+06
  33340      1    192    106       8.900          0.1815E+06
  33341      1    192    107       9.360          0.1815E+06
  33342      1    192    108       9.250          0.1815E+06
  33343      1    192    109       9.400          0.1815E+06
  33344      1    192    110       9.310          0.1815E+06
  33345      1    192    111       9.770          0.1815E+06
  33346      1    192    112       9.350          0.1815E+06
  33347      1    192    113       9.230          0.1815E+06
  33348      1    192    114       12.60          0.1815E+06
  33349      1    192    115       9.640          0.1815E+06
  33350      1    192    116       9.810          0.1815E+06
  33351      1    192    117       8.940          0.1815E+06
  33352      1    192    118       10.89          0.1815E+06
  33353      1    192    119       9.560          0.1815E+06
  33354      1    192    120       8.960          0.1815E+06
  33355      1    192    121       9.020          0.1815E+06
  33356      1    192    122       8.310          0.1815E+06
  33357      1    192    123       7.860          0.1815E+06
  33358      1    192    124       7.650          0.1815E+06
  33359      1    192    125       8.020          0.1815E+06
  33360      1    192    126       7.670          0.1815E+06
  33361      1    192    127       7.440          0.1815E+06
  33362      1    192    128       7.570          0.1815E+06
  33363      1    192    129       7.260          0.1815E+06
  33364      1    192    130       6.940          0.1815E+06
  33365      1    192    131       6.710          0.1815E+06
  33366      1    192    132       6.400          0.1815E+06
  33367      1    192    133       6.250          0.1815E+06
  33368      1    192    134       6.340          0.1815E+06
  33369      1    192    135       6.380          0.1815E+06
  33370      1    192    136       6.090          0.1815E+06
  33371      1    192    137       6.070          0.1815E+06
  33372      1    192    138       6.050          0.1815E+06
  33373      1    192    139       5.940          0.1815E+06
  33374      1    192    140       5.860          0.1815E+06
  33375      1    192    141       6.190          0.1815E+06
  33376      1    192    142       6.070          0.1815E+06
  33377      1    192    143       5.960          0.1815E+06
  33378      1    192    144       6.190          0.1815E+06
  33379      1    192    145       5.980          0.1815E+06
  33380      1    192    146       6.150          0.1815E+06
  33381      1    192    147       6.230          0.1815E+06
  33382      1    192    148       6.190          0.1815E+06
  33383      1    192    149       5.960          0.1815E+06
  33384      1    192    150       5.980          0.1815E+06
  33385      1    192    151       6.090          0.1815E+06
  33386      1    192    152       6.500          0.1815E+06
  33387      1    192    153       7.650          0.1815E+06
  33388      1    192    154       9.100          0.1815E+06
  33389      1    192    155       9.730          0.1815E+06
  33390      1    192    156       6.550          0.1815E+06
  33391      1    192    157       6.400          0.1815E+06
  33392      1    192    158       7.800          0.1815E+06
  33393      1    192    159       7.000          0.1815E+06
  33394      1    192    160       6.940          0.1815E+06
  33395      1    192    161       6.440          0.1815E+06
  33396      1    192    162       6.840          0.1815E+06
  33397      1    192    163       10.44          0.1815E+06
  33398      1    192    164       10.94          0.1815E+06
  33399      1    192    165       10.98          0.1815E+06
  33400      1    192    166       11.18          0.1815E+06
  33401      1    192    167       11.72          0.1815E+06
  33402      1    192    168       11.52          0.1815E+06
  33403      1    192    169       10.56          0.1815E+06
  33404      1    192    170       10.56          0.1815E+06
  33405      1    192    171       10.61          0.1815E+06
  33406      1    192    172       10.68          0.1815E+06
  33407      1    192    173       10.30          0.1815E+06
  33408      1    192    174       11.81          0.1815E+06
  33409      1    193      1      -14.63          0.1815E+06
  33410      1    193      2      -14.63          0.1815E+06
  33411      1    193      3      -14.63          0.1815E+06
  33412      1    193      4      -14.63          0.1815E+06
  33413      1    193      5      -14.73          0.1815E+06
  33414      1    193      6      -14.63          0.1815E+06
  33415      1    193      7      -14.49          0.1815E+06
  33416      1    193      8      -14.50          0.1815E+06
  33417      1    193      9      -14.50          0.1815E+06
  33418      1    193     10      -14.43          0.1815E+06
  33419      1    193     11      -14.42          0.1815E+06
  33420      1    193     12      -14.20          0.1815E+06
  33421      1    193     13      -13.94          0.1815E+06
  33422      1    193     14      -13.94          0.1815E+06
  33423      1    193     15      -13.94          0.1815E+06
  33424      1    193     16      -13.68          0.1815E+06
  33425      1    193     17      -13.45          0.1815E+06
  33426      1    193     18      -13.15          0.1815E+06
  33427      1    193     19      -12.85          0.1815E+06
  33428      1    193     20      -11.15          0.1815E+06
  33429      1    193     21      -11.15          0.1815E+06
  33430      1    193     22      -9.650          0.1815E+06
  33431      1    193     23      -9.360          0.1815E+06
  33432      1    193     24      -8.950          0.1815E+06
  33433      1    193     25      -10.99          0.1815E+06
  33434      1    193     26      -10.99          0.1815E+06
  33435      1    193     27      -12.55          0.1815E+06
  33436      1    193     28      -13.40          0.1815E+06
  33437      1    193     29      -13.35          0.1815E+06
  33438      1    193     30      -13.55          0.1815E+06
  33439      1    193     31      -13.85          0.1815E+06
  33440      1    193     32      -13.85          0.1815E+06
  33441      1    193     33      -13.65          0.1815E+06
  33442      1    193     34      -13.67          0.1815E+06
  33443      1    193     35      -13.50          0.1815E+06
  33444      1    193     36      -13.55          0.1815E+06
  33445      1    193     37      -13.75          0.1815E+06
  33446      1    193     38      -13.75          0.1815E+06
  33447      1    193     39      -13.55          0.1815E+06
  33448      1    193     40      -13.55          0.1815E+06
  33449      1    193     41      -13.15          0.1815E+06
  33450      1    193     42      -12.93          0.1815E+06
  33451      1    193     43      -12.45          0.1815E+06
  33452      1    193     44      -12.45          0.1815E+06
  33453      1    193     45      -12.25          0.1815E+06
  33454      1    193     46      -11.98          0.1815E+06
  33455      1    193     47      -11.65          0.1815E+06
  33456      1    193     48      -11.74          0.1815E+06
  33457      1    193     49      -11.74          0.1815E+06
  33458      1    193     50      -11.34          0.1815E+06
  33459      1    193     51      -10.44          0.1815E+06
  33460      1    193     52      -10.04          0.1815E+06
  33461      1    193     53      -9.210          0.1815E+06
  33462      1    193     54      -8.550          0.1815E+06
  33463      1    193     55      -8.550          0.1815E+06
  33464      1    193     56      -8.250          0.1815E+06
  33465      1    193     57      -7.250          0.1815E+06
  33466      1    193     58      -6.650          0.1815E+06
  33467      1    193     59      -4.850          0.1815E+06
  33468      1    193     60      -4.650          0.1815E+06
  33469      1    193     61      -4.650          0.1815E+06
  33470      1    193     62      -4.570          0.1815E+06
  33471      1    193     63      -3.850          0.1815E+06
  33472      1    193     64      -3.250          0.1815E+06
  33473      1    193     65      -3.260          0.1815E+06
  33474      1    193     66      -3.090          0.1815E+06
  33475      1    193     67      -3.090          0.1815E+06
  33476      1    193     68      -2.950          0.1815E+06
  33477      1    193     69      -2.450          0.1815E+06
  33478      1    193     70      -2.050          0.1815E+06
  33479      1    193     71      -2.340          0.1815E+06
  33480      1    193     72      -2.340          0.1815E+06
  33481      1    193     73      -2.140          0.1815E+06
  33482      1    193     74      -1.640          0.1815E+06
  33483      1    193     75      0.6500          0.1815E+06
  33484      1    193     76      0.6600          0.1815E+06
  33485      1    193     77       1.670          0.1815E+06
  33486      1    193     78       1.670          0.1815E+06
  33487      1    193     79       3.670          0.1815E+06
  33488      1    193     80       5.670          0.1815E+06
  33489      1    193     81       5.150          0.1815E+06
  33490      1    193     82       5.800          0.1815E+06
  33491      1    193     83       9.250          0.1815E+06
  33492      1    193     84       8.100          0.1815E+06
  33493      1    193     85       7.030          0.1815E+06
  33494      1    193     86       2.690          0.1815E+06
  33495      1    193     87       2.690          0.1815E+06
  33496      1    193     88       2.690          0.1815E+06
  33497      1    193     89       4.700          0.1815E+06
  33498      1    193     90       4.700          0.1815E+06
  33499      1    193     91       4.700          0.1815E+06
  33500      1    193     92       4.700          0.1815E+06
  33501      1    193     93       3.710          0.1815E+06
  33502      1    193     94       3.720          0.1815E+06
  33503      1    193     95       3.720          0.1815E+06
  33504      1    193     96       3.720          0.1815E+06
  33505      1    193     97       3.720          0.1815E+06
  33506      1    193     98       3.720          0.1815E+06
  33507      1    193     99       3.730          0.1815E+06
  33508      1    193    100       10.46          0.1815E+06
  33509      1    193    101       15.52          0.1815E+06
  33510      1    193    102       17.77          0.1815E+06
  33511      1    193    103       13.42          0.1815E+06
  33512      1    193    104       10.07          0.1815E+06
  33513      1    193    105       7.960          0.1815E+06
  33514      1    193    106       14.50          0.1815E+06
  33515      1    193    107       13.22          0.1815E+06
  33516      1    193    108       10.52          0.1815E+06
  33517      1    193    109       9.480          0.1815E+06
  33518      1    193    110       9.570          0.1815E+06
  33519      1    193    111       9.380          0.1815E+06
  33520      1    193    112       9.880          0.1815E+06
  33521      1    193    113       9.470          0.1815E+06
  33522      1    193    114       11.51          0.1815E+06
  33523      1    193    115       12.17          0.1815E+06
  33524      1    193    116       10.26          0.1815E+06
  33525      1    193    117       9.090          0.1815E+06
  33526      1    193    118       8.180          0.1815E+06
  33527      1    193    119       15.53          0.1815E+06
  33528      1    193    120       11.28          0.1815E+06
  33529      1    193    121       8.810          0.1815E+06
  33530      1    193    122       8.720          0.1815E+06
  33531      1    193    123       8.500          0.1815E+06
  33532      1    193    124       7.840          0.1815E+06
  33533      1    193    125       7.940          0.1815E+06
  33534      1    193    126       8.140          0.1815E+06
  33535      1    193    127       7.780          0.1815E+06
  33536      1    193    128       7.710          0.1815E+06
  33537      1    193    129       7.420          0.1815E+06
  33538      1    193    130       9.310          0.1815E+06
  33539      1    193    131       7.070          0.1815E+06
  33540      1    193    132       6.650          0.1815E+06
  33541      1    193    133       6.980          0.1815E+06
  33542      1    193    134       7.670          0.1815E+06
  33543      1    193    135       7.420          0.1815E+06
  33544      1    193    136       6.170          0.1815E+06
  33545      1    193    137       6.090          0.1815E+06
  33546      1    193    138       6.150          0.1815E+06
  33547      1    193    139       5.820          0.1815E+06
  33548      1    193    140       5.880          0.1815E+06
  33549      1    193    141       6.150          0.1815E+06
  33550      1    193    142       6.010          0.1815E+06
  33551      1    193    143       5.860          0.1815E+06
  33552      1    193    144       5.650          0.1815E+06
  33553      1    193    145       6.000          0.1815E+06
  33554      1    193    146       6.090          0.1815E+06
  33555      1    193    147       6.110          0.1815E+06
  33556      1    193    148       6.030          0.1815E+06
  33557      1    193    149       5.960          0.1815E+06
  33558      1    193    150       6.050          0.1815E+06
  33559      1    193    151       6.360          0.1815E+06
  33560      1    193    152       7.030          0.1815E+06
  33561      1    193    153       8.710          0.1815E+06
  33562      1    193    154       10.22          0.1815E+06
  33563      1    193    155       9.930          0.1815E+06
  33564      1    193    156       9.520          0.1815E+06
  33565      1    193    157       8.670          0.1815E+06
  33566      1    193    158       7.320          0.1815E+06
  33567      1    193    159       7.780          0.1815E+06
  33568      1    193    160       6.820          0.1815E+06
  33569      1    193    161       7.340          0.1815E+06
  33570      1    193    162       9.390          0.1815E+06
  33571      1    193    163       11.55          0.1815E+06
  33572      1    193    164       11.25          0.1815E+06
  33573      1    193    165       11.52          0.1815E+06
  33574      1    193    166       11.96          0.1815E+06
  33575      1    193    167       12.35          0.1815E+06
  33576      1    193    168       12.05          0.1815E+06
  33577      1    193    169       11.78          0.1815E+06
  33578      1    193    170       10.71          0.1815E+06
  33579      1    193    171       11.17          0.1815E+06
  33580      1    193    172       11.40          0.1815E+06
  33581      1    193    173       11.43          0.1815E+06
  33582      1    193    174       11.92          0.1815E+06
  33583      1    194      1      -14.63          0.1815E+06
  33584      1    194      2      -14.61          0.1815E+06
  33585      1    194      3      -14.61          0.1815E+06
  33586      1    194      4      -14.63          0.1815E+06
  33587      1    194      5      -14.63          0.1815E+06
  33588      1    194      6      -14.56          0.1815E+06
  33589      1    194      7      -14.43          0.1815E+06
  33590      1    194      8      -14.39          0.1815E+06
  33591      1    194      9      -14.39          0.1815E+06
  33592      1    194     10      -14.39          0.1815E+06
  33593      1    194     11      -14.34          0.1815E+06
  33594      1    194     12      -14.14          0.1815E+06
  33595      1    194     13      -14.14          0.1815E+06
  33596      1    194     14      -13.54          0.1815E+06
  33597      1    194     15      -13.54          0.1815E+06
  33598      1    194     16      -13.45          0.1815E+06
  33599      1    194     17      -13.52          0.1815E+06
  33600      1    194     18      -13.38          0.1815E+06
  33601      1    194     19      -13.15          0.1815E+06
  33602      1    194     20      -12.56          0.1815E+06
  33603      1    194     21      -12.56          0.1815E+06
  33604      1    194     22      -9.650          0.1815E+06
  33605      1    194     23      -9.360          0.1815E+06
  33606      1    194     24      -8.950          0.1815E+06
  33607      1    194     25      -10.99          0.1815E+06
  33608      1    194     26      -10.99          0.1815E+06
  33609      1    194     27      -12.78          0.1815E+06
  33610      1    194     28      -13.55          0.1815E+06
  33611      1    194     29      -13.53          0.1815E+06
  33612      1    194     30      -13.65          0.1815E+06
  33613      1    194     31      -13.95          0.1815E+06
  33614      1    194     32      -13.95          0.1815E+06
  33615      1    194     33      -13.70          0.1815E+06
  33616      1    194     34      -13.50          0.1815E+06
  33617      1    194     35      -13.55          0.1815E+06
  33618      1    194     36      -13.42          0.1815E+06
  33619      1    194     37      -13.31          0.1815E+06
  33620      1    194     38      -13.31          0.1815E+06
  33621      1    194     39      -13.26          0.1815E+06
  33622      1    194     40      -13.56          0.1815E+06
  33623      1    194     41      -13.26          0.1815E+06
  33624      1    194     42      -13.25          0.1815E+06
  33625      1    194     43      -12.42          0.1815E+06
  33626      1    194     44      -12.42          0.1815E+06
  33627      1    194     45      -12.18          0.1815E+06
  33628      1    194     46      -11.98          0.1815E+06
  33629      1    194     47      -11.65          0.1815E+06
  33630      1    194     48      -11.68          0.1815E+06
  33631      1    194     49      -11.68          0.1815E+06
  33632      1    194     50      -11.34          0.1815E+06
  33633      1    194     51      -11.04          0.1815E+06
  33634      1    194     52      -10.21          0.1815E+06
  33635      1    194     53      -9.150          0.1815E+06
  33636      1    194     54      -8.580          0.1815E+06
  33637      1    194     55      -8.580          0.1815E+06
  33638      1    194     56      -8.050          0.1815E+06
  33639      1    194     57      -7.550          0.1815E+06
  33640      1    194     58      -6.740          0.1815E+06
  33641      1    194     59      -5.050          0.1815E+06
  33642      1    194     60      -5.220          0.1815E+06
  33643      1    194     61      -5.220          0.1815E+06
  33644      1    194     62      -5.250          0.1815E+06
  33645      1    194     63      -4.650          0.1815E+06
  33646      1    194     64      -3.760          0.1815E+06
  33647      1    194     65      -3.570          0.1815E+06
  33648      1    194     66      -3.530          0.1815E+06
  33649      1    194     67      -3.530          0.1815E+06
  33650      1    194     68      -3.430          0.1815E+06
  33651      1    194     69      -3.050          0.1815E+06
  33652      1    194     70      -2.540          0.1815E+06
  33653      1    194     71      -2.340          0.1815E+06
  33654      1    194     72      -2.340          0.1815E+06
  33655      1    194     73      -2.140          0.1815E+06
  33656      1    194     74      -1.640          0.1815E+06
  33657      1    194     75      0.6500          0.1815E+06
  33658      1    194     76      0.6600          0.1815E+06
  33659      1    194     77      0.6600          0.1815E+06
  33660      1    194     78      0.6600          0.1815E+06
  33661      1    194     79       2.670          0.1815E+06
  33662      1    194     80       3.670          0.1815E+06
  33663      1    194     81       4.680          0.1815E+06
  33664      1    194     82       4.680          0.1815E+06
  33665      1    194     83       9.680          0.1815E+06
  33666      1    194     84       9.680          0.1815E+06
  33667      1    194     85       3.690          0.1815E+06
  33668      1    194     86       2.460          0.1815E+06
  33669      1    194     87       2.690          0.1815E+06
  33670      1    194     88       3.700          0.1815E+06
  33671      1    194     89       4.700          0.1815E+06
  33672      1    194     90       4.700          0.1815E+06
  33673      1    194     91       4.700          0.1815E+06
  33674      1    194     92       3.700          0.1815E+06
  33675      1    194     93       3.710          0.1815E+06
  33676      1    194     94       3.710          0.1815E+06
  33677      1    194     95       3.710          0.1815E+06
  33678      1    194     96       3.720          0.1815E+06
  33679      1    194     97       3.720          0.1815E+06
  33680      1    194     98       2.720          0.1815E+06
  33681      1    194     99       3.730          0.1815E+06
  33682      1    194    100       10.81          0.1815E+06
  33683      1    194    101       15.39          0.1815E+06
  33684      1    194    102       14.81          0.1815E+06
  33685      1    194    103       13.56          0.1815E+06
  33686      1    194    104       9.730          0.1815E+06
  33687      1    194    105       8.840          0.1815E+06
  33688      1    194    106       8.720          0.1815E+06
  33689      1    194    107       12.81          0.1815E+06
  33690      1    194    108       12.14          0.1815E+06
  33691      1    194    109       10.78          0.1815E+06
  33692      1    194    110       9.550          0.1815E+06
  33693      1    194    111       9.350          0.1815E+06
  33694      1    194    112       9.000          0.1815E+06
  33695      1    194    113       10.46          0.1815E+06
  33696      1    194    114       13.60          0.1815E+06
  33697      1    194    115       12.81          0.1815E+06
  33698      1    194    116       11.76          0.1815E+06
  33699      1    194    117       9.600          0.1815E+06
  33700      1    194    118       9.180          0.1815E+06
  33701      1    194    119       10.10          0.1815E+06
  33702      1    194    120       12.44          0.1815E+06
  33703      1    194    121       9.560          0.1815E+06
  33704      1    194    122       9.530          0.1815E+06
  33705      1    194    123       8.770          0.1815E+06
  33706      1    194    124       8.480          0.1815E+06
  33707      1    194    125       8.360          0.1815E+06
  33708      1    194    126       8.030          0.1815E+06
  33709      1    194    127       7.920          0.1815E+06
  33710      1    194    128       7.690          0.1815E+06
  33711      1    194    129       7.690          0.1815E+06
  33712      1    194    130       9.060          0.1815E+06
  33713      1    194    131       7.760          0.1815E+06
  33714      1    194    132       7.000          0.1815E+06
  33715      1    194    133       6.780          0.1815E+06
  33716      1    194    134       6.510          0.1815E+06
  33717      1    194    135       6.400          0.1815E+06
  33718      1    194    136       6.130          0.1815E+06
  33719      1    194    137       5.940          0.1815E+06
  33720      1    194    138       7.380          0.1815E+06
  33721      1    194    139       7.150          0.1815E+06
  33722      1    194    140       6.070          0.1815E+06
  33723      1    194    141       6.190          0.1815E+06
  33724      1    194    142       5.980          0.1815E+06
  33725      1    194    143       6.030          0.1815E+06
  33726      1    194    144       5.940          0.1815E+06
  33727      1    194    145       6.150          0.1815E+06
  33728      1    194    146       6.070          0.1815E+06
  33729      1    194    147       6.050          0.1815E+06
  33730      1    194    148       6.010          0.1815E+06
  33731      1    194    149       5.980          0.1815E+06
  33732      1    194    150       6.110          0.1815E+06
  33733      1    194    151       6.260          0.1815E+06
  33734      1    194    152       6.280          0.1815E+06
  33735      1    194    153       7.780          0.1815E+06
  33736      1    194    154       7.900          0.1815E+06
  33737      1    194    155       11.14          0.1815E+06
  33738      1    194    156       12.64          0.1815E+06
  33739      1    194    157       12.65          0.1815E+06
  33740      1    194    158       12.11          0.1815E+06
  33741      1    194    159       11.39          0.1815E+06
  33742      1    194    160       11.22          0.1815E+06
  33743      1    194    161       11.93          0.1815E+06
  33744      1    194    162       12.31          0.1815E+06
  33745      1    194    163       12.31          0.1815E+06
  33746      1    194    164       11.77          0.1815E+06
  33747      1    194    165       12.00          0.1815E+06
  33748      1    194    166       12.69          0.1815E+06
  33749      1    194    167       12.05          0.1815E+06
  33750      1    194    168       12.06          0.1815E+06
  33751      1    194    169       11.73          0.1815E+06
  33752      1    194    170       11.05          0.1815E+06
  33753      1    194    171       11.43          0.1815E+06
  33754      1    194    172       12.52          0.1815E+06
  33755      1    194    173       12.60          0.1815E+06
  33756      1    194    174       12.47          0.1815E+06
  33757      1    195      1      -14.83          0.1815E+06
  33758      1    195      2      -14.63          0.1815E+06
  33759      1    195      3      -14.63          0.1815E+06
  33760      1    195      4      -14.38          0.1815E+06
  33761      1    195      5      -14.43          0.1815E+06
  33762      1    195      6      -14.43          0.1815E+06
  33763      1    195      7      -14.43          0.1815E+06
  33764      1    195      8      -14.27          0.1815E+06
  33765      1    195      9      -14.27          0.1815E+06
  33766      1    195     10      -14.34          0.1815E+06
  33767      1    195     11      -14.34          0.1815E+06
  33768      1    195     12      -14.02          0.1815E+06
  33769      1    195     13      -13.94          0.1815E+06
  33770      1    195     14      -13.72          0.1815E+06
  33771      1    195     15      -13.72          0.1815E+06
  33772      1    195     16      -13.64          0.1815E+06
  33773      1    195     17      -13.52          0.1815E+06
  33774      1    195     18      -13.25          0.1815E+06
  33775      1    195     19      -13.15          0.1815E+06
  33776      1    195     20      -12.56          0.1815E+06
  33777      1    195     21      -12.56          0.1815E+06
  33778      1    195     22      -12.50          0.1815E+06
  33779      1    195     23      -10.15          0.1815E+06
  33780      1    195     24      -10.20          0.1815E+06
  33781      1    195     25      -12.75          0.1815E+06
  33782      1    195     26      -12.75          0.1815E+06
  33783      1    195     27      -13.35          0.1815E+06
  33784      1    195     28      -13.55          0.1815E+06
  33785      1    195     29      -13.85          0.1815E+06
  33786      1    195     30      -13.85          0.1815E+06
  33787      1    195     31      -13.88          0.1815E+06
  33788      1    195     32      -13.88          0.1815E+06
  33789      1    195     33      -13.86          0.1815E+06
  33790      1    195     34      -13.67          0.1815E+06
  33791      1    195     35      -13.46          0.1815E+06
  33792      1    195     36      -13.46          0.1815E+06
  33793      1    195     37      -13.46          0.1815E+06
  33794      1    195     38      -13.46          0.1815E+06
  33795      1    195     39      -12.96          0.1815E+06
  33796      1    195     40      -13.26          0.1815E+06
  33797      1    195     41      -12.86          0.1815E+06
  33798      1    195     42      -13.25          0.1815E+06
  33799      1    195     43      -12.42          0.1815E+06
  33800      1    195     44      -12.42          0.1815E+06
  33801      1    195     45      -12.18          0.1815E+06
  33802      1    195     46      -11.85          0.1815E+06
  33803      1    195     47      -11.65          0.1815E+06
  33804      1    195     48      -12.15          0.1815E+06
  33805      1    195     49      -12.15          0.1815E+06
  33806      1    195     50      -11.35          0.1815E+06
  33807      1    195     51      -10.92          0.1815E+06
  33808      1    195     52      -10.35          0.1815E+06
  33809      1    195     53      -9.380          0.1815E+06
  33810      1    195     54      -8.550          0.1815E+06
  33811      1    195     55      -8.550          0.1815E+06
  33812      1    195     56      -8.150          0.1815E+06
  33813      1    195     57      -7.680          0.1815E+06
  33814      1    195     58      -6.650          0.1815E+06
  33815      1    195     59      -6.190          0.1815E+06
  33816      1    195     60      -6.050          0.1815E+06
  33817      1    195     61      -6.050          0.1815E+06
  33818      1    195     62      -5.650          0.1815E+06
  33819      1    195     63      -4.400          0.1815E+06
  33820      1    195     64      -3.860          0.1815E+06
  33821      1    195     65      -3.690          0.1815E+06
  33822      1    195     66      -3.790          0.1815E+06
  33823      1    195     67      -3.790          0.1815E+06
  33824      1    195     68      -3.430          0.1815E+06
  33825      1    195     69      -3.050          0.1815E+06
  33826      1    195     70      -2.540          0.1815E+06
  33827      1    195     71      -2.350          0.1815E+06
  33828      1    195     72      -2.350          0.1815E+06
  33829      1    195     73      -1.640          0.1815E+06
  33830      1    195     74      -1.430          0.1815E+06
  33831      1    195     75      -1.010          0.1815E+06
  33832      1    195     76      -1.540          0.1815E+06
  33833      1    195     77      0.6600          0.1815E+06
  33834      1    195     78      0.6600          0.1815E+06
  33835      1    195     79       1.670          0.1815E+06
  33836      1    195     80       2.670          0.1815E+06
  33837      1    195     81       3.670          0.1815E+06
  33838      1    195     82       4.180          0.1815E+06
  33839      1    195     83       3.680          0.1815E+06
  33840      1    195     84       3.680          0.1815E+06
  33841      1    195     85       4.190          0.1815E+06
  33842      1    195     86       7.180          0.1815E+06
  33843      1    195     87       1.630          0.1815E+06
  33844      1    195     88       1.820          0.1815E+06
  33845      1    195     89      0.8200          0.1815E+06
  33846      1    195     90       1.520          0.1815E+06
  33847      1    195     91       1.860          0.1815E+06
  33848      1    195     92       2.130          0.1815E+06
  33849      1    195     93       3.710          0.1815E+06
  33850      1    195     94       3.710          0.1815E+06
  33851      1    195     95       3.710          0.1815E+06
  33852      1    195     96       3.720          0.1815E+06
  33853      1    195     97       3.720          0.1815E+06
  33854      1    195     98       2.720          0.1815E+06
  33855      1    195     99       2.720          0.1815E+06
  33856      1    195    100       6.220          0.1815E+06
  33857      1    195    101       6.220          0.1815E+06
  33858      1    195    102       12.76          0.1815E+06
  33859      1    195    103       11.82          0.1815E+06
  33860      1    195    104       8.770          0.1815E+06
  33861      1    195    105       8.310          0.1815E+06
  33862      1    195    106       10.22          0.1815E+06
  33863      1    195    107       9.350          0.1815E+06
  33864      1    195    108       16.21          0.1815E+06
  33865      1    195    109       11.07          0.1815E+06
  33866      1    195    110       11.01          0.1815E+06
  33867      1    195    111       9.880          0.1815E+06
  33868      1    195    112       9.350          0.1815E+06
  33869      1    195    113       9.460          0.1815E+06
  33870      1    195    114       16.39          0.1815E+06
  33871      1    195    115       12.77          0.1815E+06
  33872      1    195    116       10.93          0.1815E+06
  33873      1    195    117       10.28          0.1815E+06
  33874      1    195    118       9.880          0.1815E+06
  33875      1    195    119       10.94          0.1815E+06
  33876      1    195    120       9.920          0.1815E+06
  33877      1    195    121       9.020          0.1815E+06
  33878      1    195    122       8.530          0.1815E+06
  33879      1    195    123       9.180          0.1815E+06
  33880      1    195    124       8.400          0.1815E+06
  33881      1    195    125       8.280          0.1815E+06
  33882      1    195    126       8.640          0.1815E+06
  33883      1    195    127       7.840          0.1815E+06
  33884      1    195    128       7.650          0.1815E+06
  33885      1    195    129       7.550          0.1815E+06
  33886      1    195    130       7.800          0.1815E+06
  33887      1    195    131       8.000          0.1815E+06
  33888      1    195    132       7.320          0.1815E+06
  33889      1    195    133       6.900          0.1815E+06
  33890      1    195    134       6.610          0.1815E+06
  33891      1    195    135       6.460          0.1815E+06
  33892      1    195    136       6.460          0.1815E+06
  33893      1    195    137       6.000          0.1815E+06
  33894      1    195    138       5.980          0.1815E+06
  33895      1    195    139       5.980          0.1815E+06
  33896      1    195    140       6.110          0.1815E+06
  33897      1    195    141       6.030          0.1815E+06
  33898      1    195    142       5.400          0.1815E+06
  33899      1    195    143       5.960          0.1815E+06
  33900      1    195    144       5.920          0.1815E+06
  33901      1    195    145       5.800          0.1815E+06
  33902      1    195    146       6.170          0.1815E+06
  33903      1    195    147       6.130          0.1815E+06
  33904      1    195    148       6.010          0.1815E+06
  33905      1    195    149       7.300          0.1815E+06
  33906      1    195    150       5.900          0.1815E+06
  33907      1    195    151       6.420          0.1815E+06
  33908      1    195    152       6.400          0.1815E+06
  33909      1    195    153       6.050          0.1815E+06
  33910      1    195    154       6.510          0.1815E+06
  33911      1    195    155       10.09          0.1815E+06
  33912      1    195    156       11.40          0.1815E+06
  33913      1    195    157       12.32          0.1815E+06
  33914      1    195    158       13.02          0.1815E+06
  33915      1    195    159       12.23          0.1815E+06
  33916      1    195    160       12.81          0.1815E+06
  33917      1    195    161       13.02          0.1815E+06
  33918      1    195    162       12.42          0.1815E+06
  33919      1    195    163       12.06          0.1815E+06
  33920      1    195    164       11.96          0.1815E+06
  33921      1    195    165       11.89          0.1815E+06
  33922      1    195    166       13.26          0.1815E+06
  33923      1    195    167       12.31          0.1815E+06
  33924      1    195    168       12.22          0.1815E+06
  33925      1    195    169       12.32          0.1815E+06
  33926      1    195    170       10.59          0.1815E+06
  33927      1    195    171       12.14          0.1815E+06
  33928      1    195    172       13.90          0.1815E+06
  33929      1    195    173       14.88          0.1815E+06
  33930      1    195    174       13.78          0.1815E+06
  33931      1    196      1      -14.53          0.1815E+06
  33932      1    196      2      -14.43          0.1815E+06
  33933      1    196      3      -14.43          0.1815E+06
  33934      1    196      4      -14.03          0.1815E+06
  33935      1    196      5      -14.23          0.1815E+06
  33936      1    196      6      -14.01          0.1815E+06
  33937      1    196      7      -13.84          0.1815E+06
  33938      1    196      8      -14.14          0.1815E+06
  33939      1    196      9      -14.14          0.1815E+06
  33940      1    196     10      -14.34          0.1815E+06
  33941      1    196     11      -14.25          0.1815E+06
  33942      1    196     12      -14.02          0.1815E+06
  33943      1    196     13      -13.94          0.1815E+06
  33944      1    196     14      -13.72          0.1815E+06
  33945      1    196     15      -13.72          0.1815E+06
  33946      1    196     16      -13.64          0.1815E+06
  33947      1    196     17      -13.75          0.1815E+06
  33948      1    196     18      -13.21          0.1815E+06
  33949      1    196     19      -12.96          0.1815E+06
  33950      1    196     20      -12.55          0.1815E+06
  33951      1    196     21      -12.55          0.1815E+06
  33952      1    196     22      -12.60          0.1815E+06
  33953      1    196     23      -9.660          0.1815E+06
  33954      1    196     24      -8.950          0.1815E+06
  33955      1    196     25      -10.75          0.1815E+06
  33956      1    196     26      -10.75          0.1815E+06
  33957      1    196     27      -12.69          0.1815E+06
  33958      1    196     28      -13.91          0.1815E+06
  33959      1    196     29      -13.85          0.1815E+06
  33960      1    196     30      -13.66          0.1815E+06
  33961      1    196     31      -13.66          0.1815E+06
  33962      1    196     32      -13.66          0.1815E+06
  33963      1    196     33      -13.90          0.1815E+06
  33964      1    196     34      -13.86          0.1815E+06
  33965      1    196     35      -13.61          0.1815E+06
  33966      1    196     36      -13.47          0.1815E+06
  33967      1    196     37      -13.46          0.1815E+06
  33968      1    196     38      -13.46          0.1815E+06
  33969      1    196     39      -12.96          0.1815E+06
  33970      1    196     40      -13.26          0.1815E+06
  33971      1    196     41      -12.86          0.1815E+06
  33972      1    196     42      -12.96          0.1815E+06
  33973      1    196     43      -12.25          0.1815E+06
  33974      1    196     44      -12.25          0.1815E+06
  33975      1    196     45      -12.35          0.1815E+06
  33976      1    196     46      -12.27          0.1815E+06
  33977      1    196     47      -12.55          0.1815E+06
  33978      1    196     48      -12.55          0.1815E+06
  33979      1    196     49      -12.55          0.1815E+06
  33980      1    196     50      -11.85          0.1815E+06
  33981      1    196     51      -11.15          0.1815E+06
  33982      1    196     52      -10.85          0.1815E+06
  33983      1    196     53      -9.350          0.1815E+06
  33984      1    196     54      -8.750          0.1815E+06
  33985      1    196     55      -8.750          0.1815E+06
  33986      1    196     56      -8.240          0.1815E+06
  33987      1    196     57      -7.960          0.1815E+06
  33988      1    196     58      -7.370          0.1815E+06
  33989      1    196     59      -6.960          0.1815E+06
  33990      1    196     60      -6.260          0.1815E+06
  33991      1    196     61      -6.260          0.1815E+06
  33992      1    196     62      -5.760          0.1815E+06
  33993      1    196     63      -4.400          0.1815E+06
  33994      1    196     64      -3.860          0.1815E+06
  33995      1    196     65      -3.690          0.1815E+06
  33996      1    196     66      -3.790          0.1815E+06
  33997      1    196     67      -3.790          0.1815E+06
  33998      1    196     68      -3.010          0.1815E+06
  33999      1    196     69      -2.650          0.1815E+06
  34000      1    196     70      -2.750          0.1815E+06
  34001      1    196     71      -2.130          0.1815E+06
  34002      1    196     72      -2.130          0.1815E+06
  34003      1    196     73      -1.440          0.1815E+06
  34004      1    196     74      -1.650          0.1815E+06
  34005      1    196     75      -1.350          0.1815E+06
  34006      1    196     76      -1.150          0.1815E+06
  34007      1    196     77      0.6700          0.1815E+06
  34008      1    196     78      0.6700          0.1815E+06
  34009      1    196     79       1.670          0.1815E+06
  34010      1    196     80       2.670          0.1815E+06
  34011      1    196     81       3.670          0.1815E+06
  34012      1    196     82       3.680          0.1815E+06
  34013      1    196     83       3.680          0.1815E+06
  34014      1    196     84       3.680          0.1815E+06
  34015      1    196     85       3.680          0.1815E+06
  34016      1    196     86       2.690          0.1815E+06
  34017      1    196     87       2.690          0.1815E+06
  34018      1    196     88       1.610          0.1815E+06
  34019      1    196     89      0.7300          0.1815E+06
  34020      1    196     90       1.490          0.1815E+06
  34021      1    196     91       1.990          0.1815E+06
  34022      1    196     92       1.940          0.1815E+06
  34023      1    196     93       4.210          0.1815E+06
  34024      1    196     94       3.710          0.1815E+06
  34025      1    196     95       3.710          0.1815E+06
  34026      1    196     96       3.710          0.1815E+06
  34027      1    196     97       3.710          0.1815E+06
  34028      1    196     98       2.720          0.1815E+06
  34029      1    196     99       2.730          0.1815E+06
  34030      1    196    100       3.730          0.1815E+06
  34031      1    196    101       3.730          0.1815E+06
  34032      1    196    102       11.77          0.1815E+06
  34033      1    196    103       11.97          0.1815E+06
  34034      1    196    104       8.770          0.1815E+06
  34035      1    196    105       8.510          0.1815E+06
  34036      1    196    106       8.890          0.1815E+06
  34037      1    196    107       16.37          0.1815E+06
  34038      1    196    108       15.05          0.1815E+06
  34039      1    196    109       10.60          0.1815E+06
  34040      1    196    110       9.750          0.1815E+06
  34041      1    196    111       10.86          0.1815E+06
  34042      1    196    112       9.730          0.1815E+06
  34043      1    196    113       10.02          0.1815E+06
  34044      1    196    114       15.75          0.1815E+06
  34045      1    196    115       16.37          0.1815E+06
  34046      1    196    116       11.38          0.1815E+06
  34047      1    196    117       11.39          0.1815E+06
  34048      1    196    118       13.94          0.1815E+06
  34049      1    196    119       9.890          0.1815E+06
  34050      1    196    120       9.100          0.1815E+06
  34051      1    196    121       8.940          0.1815E+06
  34052      1    196    122       8.900          0.1815E+06
  34053      1    196    123       8.650          0.1815E+06
  34054      1    196    124       8.770          0.1815E+06
  34055      1    196    125       8.350          0.1815E+06
  34056      1    196    126       8.020          0.1815E+06
  34057      1    196    127       7.860          0.1815E+06
  34058      1    196    128       7.670          0.1815E+06
  34059      1    196    129       7.670          0.1815E+06
  34060      1    196    130       8.010          0.1815E+06
  34061      1    196    131       8.210          0.1815E+06
  34062      1    196    132       7.800          0.1815E+06
  34063      1    196    133       7.170          0.1815E+06
  34064      1    196    134       6.420          0.1815E+06
  34065      1    196    135       6.360          0.1815E+06
  34066      1    196    136       6.320          0.1815E+06
  34067      1    196    137       6.090          0.1815E+06
  34068      1    196    138       5.960          0.1815E+06
  34069      1    196    139       6.090          0.1815E+06
  34070      1    196    140       6.070          0.1815E+06
  34071      1    196    141       6.030          0.1815E+06
  34072      1    196    142       5.920          0.1815E+06
  34073      1    196    143       5.920          0.1815E+06
  34074      1    196    144       7.050          0.1815E+06
  34075      1    196    145       6.920          0.1815E+06
  34076      1    196    146       7.170          0.1815E+06
  34077      1    196    147       6.760          0.1815E+06
  34078      1    196    148       7.610          0.1815E+06
  34079      1    196    149       6.050          0.1815E+06
  34080      1    196    150       6.050          0.1815E+06
  34081      1    196    151       6.010          0.1815E+06
  34082      1    196    152       6.030          0.1815E+06
  34083      1    196    153       5.750          0.1815E+06
  34084      1    196    154       5.960          0.1815E+06
  34085      1    196    155       7.590          0.1815E+06
  34086      1    196    156       9.800          0.1815E+06
  34087      1    196    157       10.43          0.1815E+06
  34088      1    196    158       12.05          0.1815E+06
  34089      1    196    159       13.80          0.1815E+06
  34090      1    196    160       13.00          0.1815E+06
  34091      1    196    161       12.75          0.1815E+06
  34092      1    196    162       12.47          0.1815E+06
  34093      1    196    163       12.47          0.1815E+06
  34094      1    196    164       11.13          0.1815E+06
  34095      1    196    165       11.92          0.1815E+06
  34096      1    196    166       12.68          0.1815E+06
  34097      1    196    167       12.06          0.1815E+06
  34098      1    196    168       12.05          0.1815E+06
  34099      1    196    169       11.97          0.1815E+06
  34100      1    196    170       13.25          0.1815E+06
  34101      1    196    171       14.05          0.1815E+06
  34102      1    196    172       14.86          0.1815E+06
  34103      1    196    173       15.13          0.1815E+06
  34104      1    196    174       14.56          0.1815E+06
  34105      1    197      1      -14.53          0.1815E+06
  34106      1    197      2      -13.89          0.1815E+06
  34107      1    197      3      -13.89          0.1815E+06
  34108      1    197      4      -13.94          0.1815E+06
  34109      1    197      5      -13.94          0.1815E+06
  34110      1    197      6      -13.54          0.1815E+06
  34111      1    197      7      -13.34          0.1815E+06
  34112      1    197      8      -14.14          0.1815E+06
  34113      1    197      9      -14.14          0.1815E+06
  34114      1    197     10      -14.34          0.1815E+06
  34115      1    197     11      -14.25          0.1815E+06
  34116      1    197     12      -13.94          0.1815E+06
  34117      1    197     13      -14.13          0.1815E+06
  34118      1    197     14      -13.92          0.1815E+06
  34119      1    197     15      -13.92          0.1815E+06
  34120      1    197     16      -13.75          0.1815E+06
  34121      1    197     17      -13.75          0.1815E+06
  34122      1    197     18      -13.25          0.1815E+06
  34123      1    197     19      -13.05          0.1815E+06
  34124      1    197     20      -12.85          0.1815E+06
  34125      1    197     21      -12.85          0.1815E+06
  34126      1    197     22      -12.43          0.1815E+06
  34127      1    197     23      -9.560          0.1815E+06
  34128      1    197     24      -9.360          0.1815E+06
  34129      1    197     25      -10.54          0.1815E+06
  34130      1    197     26      -10.54          0.1815E+06
  34131      1    197     27      -12.36          0.1815E+06
  34132      1    197     28      -13.20          0.1815E+06
  34133      1    197     29      -13.76          0.1815E+06
  34134      1    197     30      -13.76          0.1815E+06
  34135      1    197     31      -13.66          0.1815E+06
  34136      1    197     32      -13.66          0.1815E+06
  34137      1    197     33      -13.90          0.1815E+06
  34138      1    197     34      -13.86          0.1815E+06
  34139      1    197     35      -13.61          0.1815E+06
  34140      1    197     36      -13.47          0.1815E+06
  34141      1    197     37      -12.86          0.1815E+06
  34142      1    197     38      -12.86          0.1815E+06
  34143      1    197     39      -12.76          0.1815E+06
  34144      1    197     40      -12.96          0.1815E+06
  34145      1    197     41      -12.76          0.1815E+06
  34146      1    197     42      -12.26          0.1815E+06
  34147      1    197     43      -12.26          0.1815E+06
  34148      1    197     44      -12.26          0.1815E+06
  34149      1    197     45      -12.31          0.1815E+06
  34150      1    197     46      -12.12          0.1815E+06
  34151      1    197     47      -12.28          0.1815E+06
  34152      1    197     48      -12.42          0.1815E+06
  34153      1    197     49      -12.42          0.1815E+06
  34154      1    197     50      -12.15          0.1815E+06
  34155      1    197     51      -11.49          0.1815E+06
  34156      1    197     52      -10.98          0.1815E+06
  34157      1    197     53      -9.760          0.1815E+06
  34158      1    197     54      -8.750          0.1815E+06
  34159      1    197     55      -8.750          0.1815E+06
  34160      1    197     56      -8.160          0.1815E+06
  34161      1    197     57      -8.060          0.1815E+06
  34162      1    197     58      -7.370          0.1815E+06
  34163      1    197     59      -6.960          0.1815E+06
  34164      1    197     60      -6.260          0.1815E+06
  34165      1    197     61      -6.260          0.1815E+06
  34166      1    197     62      -5.760          0.1815E+06
  34167      1    197     63      -4.290          0.1815E+06
  34168      1    197     64      -3.670          0.1815E+06
  34169      1    197     65      -3.550          0.1815E+06
  34170      1    197     66      -3.850          0.1815E+06
  34171      1    197     67      -3.850          0.1815E+06
  34172      1    197     68      -2.650          0.1815E+06
  34173      1    197     69      -2.650          0.1815E+06
  34174      1    197     70      -2.690          0.1815E+06
  34175      1    197     71      -2.140          0.1815E+06
  34176      1    197     72      -2.140          0.1815E+06
  34177      1    197     73      -2.060          0.1815E+06
  34178      1    197     74      -2.250          0.1815E+06
  34179      1    197     75      -1.780          0.1815E+06
  34180      1    197     76     -0.9100          0.1815E+06
  34181      1    197     77      0.6700          0.1815E+06
  34182      1    197     78      0.6700          0.1815E+06
  34183      1    197     79       1.660          0.1815E+06
  34184      1    197     80       2.670          0.1815E+06
  34185      1    197     81       3.670          0.1815E+06
  34186      1    197     82       3.680          0.1815E+06
  34187      1    197     83       3.680          0.1815E+06
  34188      1    197     84       3.680          0.1815E+06
  34189      1    197     85       3.680          0.1815E+06
  34190      1    197     86       2.690          0.1815E+06
  34191      1    197     87       2.690          0.1815E+06
  34192      1    197     88       4.700          0.1815E+06
  34193      1    197     89       8.200          0.1815E+06
  34194      1    197     90       8.200          0.1815E+06
  34195      1    197     91       8.700          0.1815E+06
  34196      1    197     92       6.710          0.1815E+06
  34197      1    197     93       5.710          0.1815E+06
  34198      1    197     94       4.710          0.1815E+06
  34199      1    197     95       4.710          0.1815E+06
  34200      1    197     96       4.720          0.1815E+06
  34201      1    197     97       3.720          0.1815E+06
  34202      1    197     98       3.720          0.1815E+06
  34203      1    197     99       2.720          0.1815E+06
  34204      1    197    100       2.720          0.1815E+06
  34205      1    197    101       2.720          0.1815E+06
  34206      1    197    102       3.730          0.1815E+06
  34207      1    197    103       11.03          0.1815E+06
  34208      1    197    104       10.48          0.1815E+06
  34209      1    197    105       9.680          0.1815E+06
  34210      1    197    106       9.440          0.1815E+06
  34211      1    197    107       12.17          0.1815E+06
  34212      1    197    108       13.68          0.1815E+06
  34213      1    197    109       12.18          0.1815E+06
  34214      1    197    110       12.10          0.1815E+06
  34215      1    197    111       12.52          0.1815E+06
  34216      1    197    112       11.47          0.1815E+06
  34217      1    197    113       10.22          0.1815E+06
  34218      1    197    114       9.900          0.1815E+06
  34219      1    197    115       9.880          0.1815E+06
  34220      1    197    116       9.650          0.1815E+06
  34221      1    197    117       12.64          0.1815E+06
  34222      1    197    118       11.18          0.1815E+06
  34223      1    197    119       9.690          0.1815E+06
  34224      1    197    120       9.220          0.1815E+06
  34225      1    197    121       9.170          0.1815E+06
  34226      1    197    122       8.810          0.1815E+06
  34227      1    197    123       8.750          0.1815E+06
  34228      1    197    124       8.520          0.1815E+06
  34229      1    197    125       8.230          0.1815E+06
  34230      1    197    126       8.560          0.1815E+06
  34231      1    197    127       8.090          0.1815E+06
  34232      1    197    128       8.050          0.1815E+06
  34233      1    197    129       7.900          0.1815E+06
  34234      1    197    130       7.800          0.1815E+06
  34235      1    197    131       8.140          0.1815E+06
  34236      1    197    132       8.560          0.1815E+06
  34237      1    197    133       7.150          0.1815E+06
  34238      1    197    134       6.630          0.1815E+06
  34239      1    197    135       6.500          0.1815E+06
  34240      1    197    136       6.510          0.1815E+06
  34241      1    197    137       5.840          0.1815E+06
  34242      1    197    138       5.800          0.1815E+06
  34243      1    197    139       6.090          0.1815E+06
  34244      1    197    140       6.210          0.1815E+06
  34245      1    197    141       6.050          0.1815E+06
  34246      1    197    142       5.300          0.1815E+06
  34247      1    197    143       5.860          0.1815E+06
  34248      1    197    144       6.730          0.1815E+06
  34249      1    197    145       6.170          0.1815E+06
  34250      1    197    146       6.000          0.1815E+06
  34251      1    197    147       6.260          0.1815E+06
  34252      1    197    148       5.940          0.1815E+06
  34253      1    197    149       6.010          0.1815E+06
  34254      1    197    150       5.780          0.1815E+06
  34255      1    197    151       5.780          0.1815E+06
  34256      1    197    152       5.840          0.1815E+06
  34257      1    197    153       5.860          0.1815E+06
  34258      1    197    154       6.340          0.1815E+06
  34259      1    197    155       6.650          0.1815E+06
  34260      1    197    156       7.090          0.1815E+06
  34261      1    197    157       7.630          0.1815E+06
  34262      1    197    158       11.97          0.1815E+06
  34263      1    197    159       10.52          0.1815E+06
  34264      1    197    160       10.02          0.1815E+06
  34265      1    197    161       8.770          0.1815E+06
  34266      1    197    162       7.860          0.1815E+06
  34267      1    197    163       7.900          0.1815E+06
  34268      1    197    164       8.090          0.1815E+06
  34269      1    197    165       9.510          0.1815E+06
  34270      1    197    166       10.47          0.1815E+06
  34271      1    197    167       11.30          0.1815E+06
  34272      1    197    168       12.38          0.1815E+06
  34273      1    197    169       13.59          0.1815E+06
  34274      1    197    170       15.05          0.1815E+06
  34275      1    197    171       15.73          0.1815E+06
  34276      1    197    172       16.14          0.1815E+06
  34277      1    197    173       15.92          0.1815E+06
  34278      1    197    174       15.36          0.1815E+06
  34279      1    198      1      -14.53          0.1815E+06
  34280      1    198      2      -13.89          0.1815E+06
  34281      1    198      3      -13.89          0.1815E+06
  34282      1    198      4      -13.94          0.1815E+06
  34283      1    198      5      -13.94          0.1815E+06
  34284      1    198      6      -13.54          0.1815E+06
  34285      1    198      7      -13.34          0.1815E+06
  34286      1    198      8      -14.14          0.1815E+06
  34287      1    198      9      -14.14          0.1815E+06
  34288      1    198     10      -14.34          0.1815E+06
  34289      1    198     11      -14.25          0.1815E+06
  34290      1    198     12      -13.94          0.1815E+06
  34291      1    198     13      -14.13          0.1815E+06
  34292      1    198     14      -13.92          0.1815E+06
  34293      1    198     15      -13.92          0.1815E+06
  34294      1    198     16      -13.75          0.1815E+06
  34295      1    198     17      -13.75          0.1815E+06
  34296      1    198     18      -13.25          0.1815E+06
  34297      1    198     19      -13.05          0.1815E+06
  34298      1    198     20      -12.85          0.1815E+06
  34299      1    198     21      -12.85          0.1815E+06
  34300      1    198     22      -12.43          0.1815E+06
  34301      1    198     23      -9.560          0.1815E+06
  34302      1    198     24      -9.360          0.1815E+06
  34303      1    198     25      -10.54          0.1815E+06
  34304      1    198     26      -10.54          0.1815E+06
  34305      1    198     27      -12.36          0.1815E+06
  34306      1    198     28      -13.20          0.1815E+06
  34307      1    198     29      -13.76          0.1815E+06
  34308      1    198     30      -13.76          0.1815E+06
  34309      1    198     31      -13.66          0.1815E+06
  34310      1    198     32      -13.66          0.1815E+06
  34311      1    198     33      -13.90          0.1815E+06
  34312      1    198     34      -13.86          0.1815E+06
  34313      1    198     35      -13.61          0.1815E+06
  34314      1    198     36      -13.47          0.1815E+06
  34315      1    198     37      -12.86          0.1815E+06
  34316      1    198     38      -12.86          0.1815E+06
  34317      1    198     39      -12.76          0.1815E+06
  34318      1    198     40      -12.96          0.1815E+06
  34319      1    198     41      -12.76          0.1815E+06
  34320      1    198     42      -12.26          0.1815E+06
  34321      1    198     43      -12.26          0.1815E+06
  34322      1    198     44      -12.26          0.1815E+06
  34323      1    198     45      -12.31          0.1815E+06
  34324      1    198     46      -12.12          0.1815E+06
  34325      1    198     47      -12.28          0.1815E+06
  34326      1    198     48      -12.42          0.1815E+06
  34327      1    198     49      -12.42          0.1815E+06
  34328      1    198     50      -12.15          0.1815E+06
  34329      1    198     51      -11.49          0.1815E+06
  34330      1    198     52      -10.98          0.1815E+06
  34331      1    198     53      -9.760          0.1815E+06
  34332      1    198     54      -8.750          0.1815E+06
  34333      1    198     55      -8.750          0.1815E+06
  34334      1    198     56      -8.160          0.1815E+06
  34335      1    198     57      -8.060          0.1815E+06
  34336      1    198     58      -7.370          0.1815E+06
  34337      1    198     59      -6.960          0.1815E+06
  34338      1    198     60      -6.260          0.1815E+06
  34339      1    198     61      -6.260          0.1815E+06
  34340      1    198     62      -5.760          0.1815E+06
  34341      1    198     63      -4.290          0.1815E+06
  34342      1    198     64      -3.670          0.1815E+06
  34343      1    198     65      -3.550          0.1815E+06
  34344      1    198     66      -3.850          0.1815E+06
  34345      1    198     67      -3.850          0.1815E+06
  34346      1    198     68      -2.650          0.1815E+06
  34347      1    198     69      -2.650          0.1815E+06
  34348      1    198     70      -2.690          0.1815E+06
  34349      1    198     71      -2.140          0.1815E+06
  34350      1    198     72      -2.140          0.1815E+06
  34351      1    198     73      -2.060          0.1815E+06
  34352      1    198     74      -2.250          0.1815E+06
  34353      1    198     75      -1.780          0.1815E+06
  34354      1    198     76     -0.9100          0.1815E+06
  34355      1    198     77      0.6700          0.1815E+06
  34356      1    198     78      0.6700          0.1815E+06
  34357      1    198     79       1.660          0.1815E+06
  34358      1    198     80       2.670          0.1815E+06
  34359      1    198     81       3.670          0.1815E+06
  34360      1    198     82       3.680          0.1815E+06
  34361      1    198     83       3.680          0.1815E+06
  34362      1    198     84       3.680          0.1815E+06
  34363      1    198     85       3.680          0.1815E+06
  34364      1    198     86       2.690          0.1815E+06
  34365      1    198     87       2.690          0.1815E+06
  34366      1    198     88       4.700          0.1815E+06
  34367      1    198     89       8.200          0.1815E+06
  34368      1    198     90       8.200          0.1815E+06
  34369      1    198     91       8.700          0.1815E+06
  34370      1    198     92       6.710          0.1815E+06
  34371      1    198     93       5.710          0.1815E+06
  34372      1    198     94       4.710          0.1815E+06
  34373      1    198     95       4.710          0.1815E+06
  34374      1    198     96       4.720          0.1815E+06
  34375      1    198     97       3.720          0.1815E+06
  34376      1    198     98       3.720          0.1815E+06
  34377      1    198     99       2.720          0.1815E+06
  34378      1    198    100       2.720          0.1815E+06
  34379      1    198    101       2.720          0.1815E+06
  34380      1    198    102       3.730          0.1815E+06
  34381      1    198    103       9.890          0.1815E+06
  34382      1    198    104       16.04          0.1815E+06
  34383      1    198    105       16.18          0.1815E+06
  34384      1    198    106       16.81          0.1815E+06
  34385      1    198    107       13.73          0.1815E+06
  34386      1    198    108       12.40          0.1815E+06
  34387      1    198    109       20.26          0.1815E+06
  34388      1    198    110       24.76          0.1815E+06
  34389      1    198    111       11.21          0.1815E+06
  34390      1    198    112       12.18          0.1815E+06
  34391      1    198    113       10.17          0.1815E+06
  34392      1    198    114       10.46          0.1815E+06
  34393      1    198    115       9.890          0.1815E+06
  34394      1    198    116       9.860          0.1815E+06
  34395      1    198    117       14.05          0.1815E+06
  34396      1    198    118       10.32          0.1815E+06
  34397      1    198    119       9.360          0.1815E+06
  34398      1    198    120       9.250          0.1815E+06
  34399      1    198    121       9.090          0.1815E+06
  34400      1    198    122       9.060          0.1815E+06
  34401      1    198    123       8.680          0.1815E+06
  34402      1    198    124       8.470          0.1815E+06
  34403      1    198    125       8.430          0.1815E+06
  34404      1    198    126       8.310          0.1815E+06
  34405      1    198    127       8.150          0.1815E+06
  34406      1    198    128       8.030          0.1815E+06
  34407      1    198    129       7.940          0.1815E+06
  34408      1    198    130       8.020          0.1815E+06
  34409      1    198    131       7.550          0.1815E+06
  34410      1    198    132       7.510          0.1815E+06
  34411      1    198    133       7.090          0.1815E+06
  34412      1    198    134       6.920          0.1815E+06
  34413      1    198    135       6.510          0.1815E+06
  34414      1    198    136       6.570          0.1815E+06
  34415      1    198    137       6.010          0.1815E+06
  34416      1    198    138       5.940          0.1815E+06
  34417      1    198    139       6.050          0.1815E+06
  34418      1    198    140       5.690          0.1815E+06
  34419      1    198    141       6.150          0.1815E+06
  34420      1    198    142       6.250          0.1815E+06
  34421      1    198    143       5.730          0.1815E+06
  34422      1    198    144       5.730          0.1815E+06
  34423      1    198    145       6.130          0.1815E+06
  34424      1    198    146       6.170          0.1815E+06
  34425      1    198    147       6.050          0.1815E+06
  34426      1    198    148       5.820          0.1815E+06
  34427      1    198    149       5.960          0.1815E+06
  34428      1    198    150       5.980          0.1815E+06
  34429      1    198    151       5.730          0.1815E+06
  34430      1    198    152       5.780          0.1815E+06
  34431      1    198    153       6.000          0.1815E+06
  34432      1    198    154       5.710          0.1815E+06
  34433      1    198    155       6.730          0.1815E+06
  34434      1    198    156       6.110          0.1815E+06
  34435      1    198    157       6.130          0.1815E+06
  34436      1    198    158       6.480          0.1815E+06
  34437      1    198    159       6.230          0.1815E+06
  34438      1    198    160       6.340          0.1815E+06
  34439      1    198    161       6.360          0.1815E+06
  34440      1    198    162       6.190          0.1815E+06
  34441      1    198    163       6.090          0.1815E+06
  34442      1    198    164       6.380          0.1815E+06
  34443      1    198    165       10.40          0.1815E+06
  34444      1    198    166       10.68          0.1815E+06
  34445      1    198    167       11.77          0.1815E+06
  34446      1    198    168       13.06          0.1815E+06
  34447      1    198    169       14.34          0.1815E+06
  34448      1    198    170       15.51          0.1815E+06
  34449      1    198    171       16.34          0.1815E+06
  34450      1    198    172       16.39          0.1815E+06
  34451      1    198    173       16.04          0.1815E+06
  34452      1    198    174       15.44          0.1815E+06
  34453      1    199      1      -14.56          0.1815E+06
  34454      1    199      2      -13.84          0.1815E+06
  34455      1    199      3      -13.84          0.1815E+06
  34456      1    199      4      -13.94          0.1815E+06
  34457      1    199      5      -13.94          0.1815E+06
  34458      1    199      6      -13.54          0.1815E+06
  34459      1    199      7      -13.84          0.1815E+06
  34460      1    199      8      -14.34          0.1815E+06
  34461      1    199      9      -14.34          0.1815E+06
  34462      1    199     10      -14.44          0.1815E+06
  34463      1    199     11      -14.44          0.1815E+06
  34464      1    199     12      -14.45          0.1815E+06
  34465      1    199     13      -14.35          0.1815E+06
  34466      1    199     14      -14.15          0.1815E+06
  34467      1    199     15      -14.15          0.1815E+06
  34468      1    199     16      -13.97          0.1815E+06
  34469      1    199     17      -13.45          0.1815E+06
  34470      1    199     18      -13.45          0.1815E+06
  34471      1    199     19      -13.82          0.1815E+06
  34472      1    199     20      -13.48          0.1815E+06
  34473      1    199     21      -13.48          0.1815E+06
  34474      1    199     22      -12.96          0.1815E+06
  34475      1    199     23      -10.31          0.1815E+06
  34476      1    199     24      -10.36          0.1815E+06
  34477      1    199     25      -10.76          0.1815E+06
  34478      1    199     26      -10.76          0.1815E+06
  34479      1    199     27      -12.14          0.1815E+06
  34480      1    199     28      -13.20          0.1815E+06
  34481      1    199     29      -13.76          0.1815E+06
  34482      1    199     30      -13.76          0.1815E+06
  34483      1    199     31      -13.66          0.1815E+06
  34484      1    199     32      -13.66          0.1815E+06
  34485      1    199     33      -13.86          0.1815E+06
  34486      1    199     34      -13.86          0.1815E+06
  34487      1    199     35      -13.70          0.1815E+06
  34488      1    199     36      -13.52          0.1815E+06
  34489      1    199     37      -13.01          0.1815E+06
  34490      1    199     38      -13.01          0.1815E+06
  34491      1    199     39      -12.66          0.1815E+06
  34492      1    199     40      -12.56          0.1815E+06
  34493      1    199     41      -12.28          0.1815E+06
  34494      1    199     42      -12.26          0.1815E+06
  34495      1    199     43      -12.40          0.1815E+06
  34496      1    199     44      -12.40          0.1815E+06
  34497      1    199     45      -12.36          0.1815E+06
  34498      1    199     46      -11.66          0.1815E+06
  34499      1    199     47      -11.36          0.1815E+06
  34500      1    199     48      -11.96          0.1815E+06
  34501      1    199     49      -11.96          0.1815E+06
  34502      1    199     50      -11.71          0.1815E+06
  34503      1    199     51      -11.49          0.1815E+06
  34504      1    199     52      -11.06          0.1815E+06
  34505      1    199     53      -9.760          0.1815E+06
  34506      1    199     54      -8.750          0.1815E+06
  34507      1    199     55      -8.750          0.1815E+06
  34508      1    199     56      -8.160          0.1815E+06
  34509      1    199     57      -7.830          0.1815E+06
  34510      1    199     58      -7.560          0.1815E+06
  34511      1    199     59      -7.160          0.1815E+06
  34512      1    199     60      -6.460          0.1815E+06
  34513      1    199     61      -6.460          0.1815E+06
  34514      1    199     62      -5.040          0.1815E+06
  34515      1    199     63      -4.260          0.1815E+06
  34516      1    199     64      -3.550          0.1815E+06
  34517      1    199     65      -3.550          0.1815E+06
  34518      1    199     66      -3.420          0.1815E+06
  34519      1    199     67      -3.420          0.1815E+06
  34520      1    199     68      -2.650          0.1815E+06
  34521      1    199     69      -2.890          0.1815E+06
  34522      1    199     70      -3.040          0.1815E+06
  34523      1    199     71      -2.640          0.1815E+06
  34524      1    199     72      -2.640          0.1815E+06
  34525      1    199     73      -2.840          0.1815E+06
  34526      1    199     74      -2.670          0.1815E+06
  34527      1    199     75      -2.120          0.1815E+06
  34528      1    199     76     -0.9500          0.1815E+06
  34529      1    199     77       1.660          0.1815E+06
  34530      1    199     78       1.660          0.1815E+06
  34531      1    199     79       1.660          0.1815E+06
  34532      1    199     80       2.670          0.1815E+06
  34533      1    199     81       3.670          0.1815E+06
  34534      1    199     82       3.680          0.1815E+06
  34535      1    199     83       3.690          0.1815E+06
  34536      1    199     84       3.690          0.1815E+06
  34537      1    199     85       4.690          0.1815E+06
  34538      1    199     86       3.690          0.1815E+06
  34539      1    199     87       2.690          0.1815E+06
  34540      1    199     88       2.700          0.1815E+06
  34541      1    199     89       2.700          0.1815E+06
  34542      1    199     90       2.700          0.1815E+06
  34543      1    199     91       2.700          0.1815E+06
  34544      1    199     92       4.700          0.1815E+06
  34545      1    199     93       4.710          0.1815E+06
  34546      1    199     94       4.710          0.1815E+06
  34547      1    199     95       4.710          0.1815E+06
  34548      1    199     96       3.720          0.1815E+06
  34549      1    199     97       3.720          0.1815E+06
  34550      1    199     98       4.720          0.1815E+06
  34551      1    199     99       4.720          0.1815E+06
  34552      1    199    100       3.720          0.1815E+06
  34553      1    199    101       3.720          0.1815E+06
  34554      1    199    102       4.720          0.1815E+06
  34555      1    199    103       11.50          0.1815E+06
  34556      1    199    104       8.430          0.1815E+06
  34557      1    199    105       8.520          0.1815E+06
  34558      1    199    106       8.560          0.1815E+06
  34559      1    199    107       12.47          0.1815E+06
  34560      1    199    108       11.22          0.1815E+06
  34561      1    199    109       11.64          0.1815E+06
  34562      1    199    110       31.15          0.1815E+06
  34563      1    199    111       13.48          0.1815E+06
  34564      1    199    112       10.06          0.1815E+06
  34565      1    199    113       10.47          0.1815E+06
  34566      1    199    114       11.51          0.1815E+06
  34567      1    199    115       10.40          0.1815E+06
  34568      1    199    116       11.06          0.1815E+06
  34569      1    199    117       11.38          0.1815E+06
  34570      1    199    118       9.800          0.1815E+06
  34571      1    199    119       9.300          0.1815E+06
  34572      1    199    120       9.220          0.1815E+06
  34573      1    199    121       9.090          0.1815E+06
  34574      1    199    122       8.720          0.1815E+06
  34575      1    199    123       8.520          0.1815E+06
  34576      1    199    124       8.460          0.1815E+06
  34577      1    199    125       8.130          0.1815E+06
  34578      1    199    126       8.430          0.1815E+06
  34579      1    199    127       7.920          0.1815E+06
  34580      1    199    128       8.000          0.1815E+06
  34581      1    199    129       7.690          0.1815E+06
  34582      1    199    130       7.840          0.1815E+06
  34583      1    199    131       7.320          0.1815E+06
  34584      1    199    132       7.050          0.1815E+06
  34585      1    199    133       6.900          0.1815E+06
  34586      1    199    134       6.800          0.1815E+06
  34587      1    199    135       6.510          0.1815E+06
  34588      1    199    136       6.340          0.1815E+06
  34589      1    199    137       6.030          0.1815E+06
  34590      1    199    138       5.880          0.1815E+06
  34591      1    199    139       5.820          0.1815E+06
  34592      1    199    140       5.940          0.1815E+06
  34593      1    199    141       6.150          0.1815E+06
  34594      1    199    142       6.210          0.1815E+06
  34595      1    199    143       5.820          0.1815E+06
  34596      1    199    144       5.940          0.1815E+06
  34597      1    199    145       5.980          0.1815E+06
  34598      1    199    146       6.320          0.1815E+06
  34599      1    199    147       6.320          0.1815E+06
  34600      1    199    148       6.130          0.1815E+06
  34601      1    199    149       6.010          0.1815E+06
  34602      1    199    150       5.980          0.1815E+06
  34603      1    199    151       6.030          0.1815E+06
  34604      1    199    152       5.840          0.1815E+06
  34605      1    199    153       6.070          0.1815E+06
  34606      1    199    154       5.980          0.1815E+06
  34607      1    199    155       6.190          0.1815E+06
  34608      1    199    156       6.190          0.1815E+06
  34609      1    199    157       6.030          0.1815E+06
  34610      1    199    158       6.400          0.1815E+06
  34611      1    199    159       6.130          0.1815E+06
  34612      1    199    160       5.820          0.1815E+06
  34613      1    199    161       6.010          0.1815E+06
  34614      1    199    162       6.170          0.1815E+06
  34615      1    199    163       6.280          0.1815E+06
  34616      1    199    164       6.400          0.1815E+06
  34617      1    199    165       8.060          0.1815E+06
  34618      1    199    166       11.90          0.1815E+06
  34619      1    199    167       13.48          0.1815E+06
  34620      1    199    168       14.10          0.1815E+06
  34621      1    199    169       15.17          0.1815E+06
  34622      1    199    170       15.38          0.1815E+06
  34623      1    199    171       15.64          0.1815E+06
  34624      1    199    172       14.84          0.1815E+06
  34625      1    199    173       14.89          0.1815E+06
  34626      1    199    174       15.05          0.1815E+06
  34627      1    200      1      -14.56          0.1815E+06
  34628      1    200      2      -13.84          0.1815E+06
  34629      1    200      3      -13.84          0.1815E+06
  34630      1    200      4      -13.72          0.1815E+06
  34631      1    200      5      -13.58          0.1815E+06
  34632      1    200      6      -13.39          0.1815E+06
  34633      1    200      7      -13.81          0.1815E+06
  34634      1    200      8      -14.27          0.1815E+06
  34635      1    200      9      -14.27          0.1815E+06
  34636      1    200     10      -14.45          0.1815E+06
  34637      1    200     11      -14.47          0.1815E+06
  34638      1    200     12      -14.40          0.1815E+06
  34639      1    200     13      -14.25          0.1815E+06
  34640      1    200     14      -14.25          0.1815E+06
  34641      1    200     15      -14.25          0.1815E+06
  34642      1    200     16      -14.00          0.1815E+06
  34643      1    200     17      -13.06          0.1815E+06
  34644      1    200     18      -13.46          0.1815E+06
  34645      1    200     19      -14.76          0.1815E+06
  34646      1    200     20      -13.96          0.1815E+06
  34647      1    200     21      -13.96          0.1815E+06
  34648      1    200     22      -11.56          0.1815E+06
  34649      1    200     23      -10.31          0.1815E+06
  34650      1    200     24      -10.36          0.1815E+06
  34651      1    200     25      -10.76          0.1815E+06
  34652      1    200     26      -10.76          0.1815E+06
  34653      1    200     27      -12.50          0.1815E+06
  34654      1    200     28      -12.06          0.1815E+06
  34655      1    200     29      -13.76          0.1815E+06
  34656      1    200     30      -13.89          0.1815E+06
  34657      1    200     31      -13.76          0.1815E+06
  34658      1    200     32      -13.76          0.1815E+06
  34659      1    200     33      -13.79          0.1815E+06
  34660      1    200     34      -13.78          0.1815E+06
  34661      1    200     35      -13.72          0.1815E+06
  34662      1    200     36      -13.56          0.1815E+06
  34663      1    200     37      -13.06          0.1815E+06
  34664      1    200     38      -13.06          0.1815E+06
  34665      1    200     39      -12.86          0.1815E+06
  34666      1    200     40      -12.72          0.1815E+06
  34667      1    200     41      -12.46          0.1815E+06
  34668      1    200     42      -12.56          0.1815E+06
  34669      1    200     43      -12.61          0.1815E+06
  34670      1    200     44      -12.61          0.1815E+06
  34671      1    200     45      -12.56          0.1815E+06
  34672      1    200     46      -11.95          0.1815E+06
  34673      1    200     47      -11.56          0.1815E+06
  34674      1    200     48      -11.96          0.1815E+06
  34675      1    200     49      -11.96          0.1815E+06
  34676      1    200     50      -11.71          0.1815E+06
  34677      1    200     51      -11.49          0.1815E+06
  34678      1    200     52      -11.06          0.1815E+06
  34679      1    200     53      -9.720          0.1815E+06
  34680      1    200     54      -8.660          0.1815E+06
  34681      1    200     55      -8.660          0.1815E+06
  34682      1    200     56      -8.160          0.1815E+06
  34683      1    200     57      -7.660          0.1815E+06
  34684      1    200     58      -7.360          0.1815E+06
  34685      1    200     59      -7.310          0.1815E+06
  34686      1    200     60      -6.960          0.1815E+06
  34687      1    200     61      -6.960          0.1815E+06
  34688      1    200     62      -5.190          0.1815E+06
  34689      1    200     63      -4.560          0.1815E+06
  34690      1    200     64      -4.360          0.1815E+06
  34691      1    200     65      -3.720          0.1815E+06
  34692      1    200     66      -3.050          0.1815E+06
  34693      1    200     67      -3.050          0.1815E+06
  34694      1    200     68      -3.140          0.1815E+06
  34695      1    200     69      -3.240          0.1815E+06
  34696      1    200     70      -3.240          0.1815E+06
  34697      1    200     71      -2.940          0.1815E+06
  34698      1    200     72      -2.940          0.1815E+06
  34699      1    200     73      -2.720          0.1815E+06
  34700      1    200     74      -2.670          0.1815E+06
  34701      1    200     75      -2.120          0.1815E+06
  34702      1    200     76     -0.9500          0.1815E+06
  34703      1    200     77       1.660          0.1815E+06
  34704      1    200     78       1.660          0.1815E+06
  34705      1    200     79       1.660          0.1815E+06
  34706      1    200     80       2.670          0.1815E+06
  34707      1    200     81       2.670          0.1815E+06
  34708      1    200     82       2.680          0.1815E+06
  34709      1    200     83       2.680          0.1815E+06
  34710      1    200     84       2.680          0.1815E+06
  34711      1    200     85       3.680          0.1815E+06
  34712      1    200     86       3.680          0.1815E+06
  34713      1    200     87       4.690          0.1815E+06
  34714      1    200     88       3.700          0.1815E+06
  34715      1    200     89       3.700          0.1815E+06
  34716      1    200     90       3.700          0.1815E+06
  34717      1    200     91       3.700          0.1815E+06
  34718      1    200     92       3.710          0.1815E+06
  34719      1    200     93       3.710          0.1815E+06
  34720      1    200     94       3.710          0.1815E+06
  34721      1    200     95       3.710          0.1815E+06
  34722      1    200     96       3.710          0.1815E+06
  34723      1    200     97       3.710          0.1815E+06
  34724      1    200     98       3.710          0.1815E+06
  34725      1    200     99       4.720          0.1815E+06
  34726      1    200    100       3.720          0.1815E+06
  34727      1    200    101       3.720          0.1815E+06
  34728      1    200    102       4.720          0.1815E+06
  34729      1    200    103       4.170          0.1815E+06
  34730      1    200    104       9.050          0.1815E+06
  34731      1    200    105       8.520          0.1815E+06
  34732      1    200    106       8.970          0.1815E+06
  34733      1    200    107       8.670          0.1815E+06
  34734      1    200    108       9.480          0.1815E+06
  34735      1    200    109       9.310          0.1815E+06
  34736      1    200    110       19.00          0.1815E+06
  34737      1    200    111       21.51          0.1815E+06
  34738      1    200    112       12.15          0.1815E+06
  34739      1    200    113       10.80          0.1815E+06
  34740      1    200    114       11.57          0.1815E+06
  34741      1    200    115       21.09          0.1815E+06
  34742      1    200    116       14.14          0.1815E+06
  34743      1    200    117       11.06          0.1815E+06
  34744      1    200    118       9.390          0.1815E+06
  34745      1    200    119       9.230          0.1815E+06
  34746      1    200    120       8.800          0.1815E+06
  34747      1    200    121       8.940          0.1815E+06
  34748      1    200    122       9.070          0.1815E+06
  34749      1    200    123       8.690          0.1815E+06
  34750      1    200    124       8.390          0.1815E+06
  34751      1    200    125       8.020          0.1815E+06
  34752      1    200    126       8.550          0.1815E+06
  34753      1    200    127       8.010          0.1815E+06
  34754      1    200    128       8.140          0.1815E+06
  34755      1    200    129       8.220          0.1815E+06
  34756      1    200    130       7.760          0.1815E+06
  34757      1    200    131       7.670          0.1815E+06
  34758      1    200    132       7.550          0.1815E+06
  34759      1    200    133       7.000          0.1815E+06
  34760      1    200    134       6.880          0.1815E+06
  34761      1    200    135       6.650          0.1815E+06
  34762      1    200    136       5.880          0.1815E+06
  34763      1    200    137       6.280          0.1815E+06
  34764      1    200    138       5.730          0.1815E+06
  34765      1    200    139       5.650          0.1815E+06
  34766      1    200    140       6.090          0.1815E+06
  34767      1    200    141       6.280          0.1815E+06
  34768      1    200    142       6.300          0.1815E+06
  34769      1    200    143       6.090          0.1815E+06
  34770      1    200    144       6.110          0.1815E+06
  34771      1    200    145       10.06          0.1815E+06
  34772      1    200    146       6.880          0.1815E+06
  34773      1    200    147       7.050          0.1815E+06
  34774      1    200    148       6.150          0.1815E+06
  34775      1    200    149       6.510          0.1815E+06
  34776      1    200    150       7.210          0.1815E+06
  34777      1    200    151       7.380          0.1815E+06
  34778      1    200    152       7.340          0.1815E+06
  34779      1    200    153       6.230          0.1815E+06
  34780      1    200    154       6.010          0.1815E+06
  34781      1    200    155       6.110          0.1815E+06
  34782      1    200    156       6.170          0.1815E+06
  34783      1    200    157       6.010          0.1815E+06
  34784      1    200    158       6.130          0.1815E+06
  34785      1    200    159       6.110          0.1815E+06
  34786      1    200    160       5.840          0.1815E+06
  34787      1    200    161       6.170          0.1815E+06
  34788      1    200    162       8.520          0.1815E+06
  34789      1    200    163       9.110          0.1815E+06
  34790      1    200    164       6.340          0.1815E+06
  34791      1    200    165       6.510          0.1815E+06
  34792      1    200    166       9.600          0.1815E+06
  34793      1    200    167       12.59          0.1815E+06
  34794      1    200    168       14.14          0.1815E+06
  34795      1    200    169       15.06          0.1815E+06
  34796      1    200    170       14.36          0.1815E+06
  34797      1    200    171       12.93          0.1815E+06
  34798      1    200    172       13.27          0.1815E+06
  34799      1    200    173       14.56          0.1815E+06
  34800      1    200    174       15.01          0.1815E+06

  34800 DRAINS

                 RECHARGE =  8.005495E-04

 SOLVING FOR HEAD 

    ------------------------------------------------
       NWT REQUIRED          163 OUTER ITERATIONS 
       AND A TOTAL OF       5966 INNER ITERATIONS.
    ------------------------------------------------

 OUTPUT CONTROL FOR STRESS PERIOD    1   TIME STEP    1
    SAVE HEAD FOR ALL LAYERS

 HEAD WILL BE SAVED ON UNIT   51 AT END OF TIME STEP    1, STRESS PERIOD    1
1
  VOLUMETRIC BUDGET FOR ENTIRE MODEL AT END OF TIME STEP    1, STRESS PERIOD   1
  ------------------------------------------------------------------------------

     CUMULATIVE VOLUMES      L**3       RATES FOR THIS TIME STEP      L**3/T
     ------------------                 ------------------------

           IN:                                      IN:
           ---                                      ---
             STORAGE =           0.0000               STORAGE =           0.0000
       CONSTANT HEAD =       2.0153E-12         CONSTANT HEAD =       2.0153E-12
              DRAINS =           0.0000                DRAINS =           0.0000
            RECHARGE =      123983.6172              RECHARGE =      123983.6172

            TOTAL IN =      123983.6172              TOTAL IN =      123983.6172

          OUT:                                     OUT:
          ----                                     ----
             STORAGE =           0.0000               STORAGE =           0.0000
       CONSTANT HEAD =       27013.3340         CONSTANT HEAD =       27013.3340
              DRAINS =       96970.2344                DRAINS =       96970.2344
            RECHARGE =           0.0000              RECHARGE =           0.0000

           TOTAL OUT =      123983.5703             TOTAL OUT =      123983.5703

            IN - OUT =       4.6875E-02              IN - OUT =       4.6875E-02

 PERCENT DISCREPANCY =           0.00     PERCENT DISCREPANCY =           0.00






         TIME SUMMARY AT END OF TIME STEP    1 IN STRESS PERIOD    1
                    SECONDS     MINUTES      HOURS       DAYS        YEARS
                    -----------------------------------------------------------
   TIME STEP LENGTH  86400.      1440.0      24.000      1.0000     2.73785E-03
 STRESS PERIOD TIME  86400.      1440.0      24.000      1.0000     2.73785E-03
         TOTAL TIME  86400.      1440.0      24.000      1.0000     2.73785E-03
1
1
                            STRESS PERIOD NO.    2, LENGTH =   3652.000    
                            -----------------------------------------------

                              NUMBER OF TIME STEPS =     1

                               MULTIPLIER FOR DELT =     1.000

                            INITIAL TIME STEP SIZE =   3652.000    

 REUSING NON-PARAMETER DRAINS FROM LAST STRESS PERIOD

  34800 DRAINS

                 RECHARGE =  8.539841E-04

 SOLVING FOR HEAD 

    ------------------------------------------------
       NWT REQUIRED           10 OUTER ITERATIONS 
       AND A TOTAL OF        145 INNER ITERATIONS.
    ------------------------------------------------

 OUTPUT CONTROL FOR STRESS PERIOD    2   TIME STEP    1
    SAVE HEAD FOR ALL LAYERS

 HEAD WILL BE SAVED ON UNIT   51 AT END OF TIME STEP    1, STRESS PERIOD    2
1
  VOLUMETRIC BUDGET FOR ENTIRE MODEL AT END OF TIME STEP    1, STRESS PERIOD   2
  ------------------------------------------------------------------------------

     CUMULATIVE VOLUMES      L**3       RATES FOR THIS TIME STEP      L**3/T
     ------------------                 ------------------------

           IN:                                      IN:
           ---                                      ---
             STORAGE =         181.1928               STORAGE =       4.9615E-02
       CONSTANT HEAD =       2.0153E-12         CONSTANT HEAD =           0.0000
              DRAINS =           0.0000                DRAINS =           0.0000
            RECHARGE =   483134528.0000              RECHARGE =      132259.1875

            TOTAL IN =   483134720.0000              TOTAL IN =      132259.2344

          OUT:                                     OUT:
          ----                                     ----
             STORAGE =    20832812.0000               STORAGE =        5704.4941
       CONSTANT HEAD =    99923288.0000         CONSTANT HEAD =       27353.8535
              DRAINS =   362381152.0000                DRAINS =       99201.5859
            RECHARGE =           0.0000              RECHARGE =           0.0000

           TOTAL OUT =   483137248.0000             TOTAL OUT =      132259.9375

            IN - OUT =       -2528.0000              IN - OUT =          -0.7031

 PERCENT DISCREPANCY =          -0.00     PERCENT DISCREPANCY =          -0.00






         TIME SUMMARY AT END OF TIME STEP    1 IN STRESS PERIOD    2
                    SECONDS     MINUTES      HOURS       DAYS        YEARS
                    -----------------------------------------------------------
   TIME STEP LENGTH 3.15533E+08 5.25888E+06  87648.      3652.0      9.9986    
 STRESS PERIOD TIME 3.15533E+08 5.25888E+06  87648.      3652.0      9.9986    
         TOTAL TIME 3.15619E+08 5.26032E+06  87672.      3653.0      10.001    
1
1
                            STRESS PERIOD NO.    3, LENGTH =   3652.000    
                            -----------------------------------------------

                              NUMBER OF TIME STEPS =     1

                               MULTIPLIER FOR DELT =     1.000

                            INITIAL TIME STEP SIZE =   3652.000    

 REUSING NON-PARAMETER DRAINS FROM LAST STRESS PERIOD

  34800 DRAINS

                 RECHARGE =  8.287295E-04

 SOLVING FOR HEAD 

    ------------------------------------------------
       NWT REQUIRED            3 OUTER ITERATIONS 
       AND A TOTAL OF         37 INNER ITERATIONS.
    ------------------------------------------------

 OUTPUT CONTROL FOR STRESS PERIOD    3   TIME STEP    1
    SAVE HEAD FOR ALL LAYERS

 HEAD WILL BE SAVED ON UNIT   51 AT END OF TIME STEP    1, STRESS PERIOD    3
1
  VOLUMETRIC BUDGET FOR ENTIRE MODEL AT END OF TIME STEP    1, STRESS PERIOD   3
  ------------------------------------------------------------------------------

     CUMULATIVE VOLUMES      L**3       RATES FOR THIS TIME STEP      L**3/T
     ------------------                 ------------------------

           IN:                                      IN:
           ---                                      ---
             STORAGE =      134081.4375               STORAGE =          36.6649
       CONSTANT HEAD =       2.0153E-12         CONSTANT HEAD =           0.0000
              DRAINS =           0.0000                DRAINS =           0.0000
            RECHARGE =   951861120.0000              RECHARGE =      128347.9297

            TOTAL IN =   951995200.0000              TOTAL IN =      128384.5938

          OUT:                                     OUT:
          ----                                     ----
             STORAGE =    27564996.0000               STORAGE =        1843.4238
       CONSTANT HEAD =   199757312.0000         CONSTANT HEAD =       27336.8086
              DRAINS =   724677120.0000                DRAINS =       99204.8125
            RECHARGE =           0.0000              RECHARGE =           0.0000

           TOTAL OUT =   951999424.0000             TOTAL OUT =      128385.0469

            IN - OUT =       -4224.0000              IN - OUT =          -0.4531

 PERCENT DISCREPANCY =          -0.00     PERCENT DISCREPANCY =          -0.00






         TIME SUMMARY AT END OF TIME STEP    1 IN STRESS PERIOD    3
                    SECONDS     MINUTES      HOURS       DAYS        YEARS
                    -----------------------------------------------------------
   TIME STEP LENGTH 3.15533E+08 5.25888E+06  87648.      3652.0      9.9986    
 STRESS PERIOD TIME 3.15533E+08 5.25888E+06  87648.      3652.0      9.9986    
         TOTAL TIME 6.31152E+08 1.05192E+07 1.75320E+05  7305.0      20.000    
1
1
                            STRESS PERIOD NO.    4, LENGTH =   3652.000    
                            -----------------------------------------------

                              NUMBER OF TIME STEPS =     1

                               MULTIPLIER FOR DELT =     1.000

                            INITIAL TIME STEP SIZE =   3652.000    

 REUSING NON-PARAMETER DRAINS FROM LAST STRESS PERIOD

  34800 DRAINS

                 RECHARGE =  8.664458E-04

 SOLVING FOR HEAD 

    ------------------------------------------------
       NWT REQUIRED            9 OUTER ITERATIONS 
       AND A TOTAL OF        136 INNER ITERATIONS.
    ------------------------------------------------

 OUTPUT CONTROL FOR STRESS PERIOD    4   TIME STEP    1
    SAVE HEAD FOR ALL LAYERS

 HEAD WILL BE SAVED ON UNIT   51 AT END OF TIME STEP    1, STRESS PERIOD    4
1
  VOLUMETRIC BUDGET FOR ENTIRE MODEL AT END OF TIME STEP    1, STRESS PERIOD   4
  ------------------------------------------------------------------------------

     CUMULATIVE VOLUMES      L**3       RATES FOR THIS TIME STEP      L**3/T
     ------------------                 ------------------------

           IN:                                      IN:
           ---                                      ---
             STORAGE =      134095.8594               STORAGE =       3.9503E-03
       CONSTANT HEAD =       2.0153E-12         CONSTANT HEAD =           0.0000
              DRAINS =           0.0000                DRAINS =           0.0000
            RECHARGE =  1441920000.0000              RECHARGE =      134189.1719

            TOTAL IN =  1442054144.0000              TOTAL IN =      134189.1719

          OUT:                                     OUT:
          ----                                     ----
             STORAGE =    47938608.0000               STORAGE =        5578.7539
       CONSTANT HEAD =   300558656.0000         CONSTANT HEAD =       27601.6777
              DRAINS =  1093585536.0000                DRAINS =      101015.4531
            RECHARGE =           0.0000              RECHARGE =           0.0000

           TOTAL OUT =  1442082816.0000             TOTAL OUT =      134195.8750

            IN - OUT =      -28672.0000              IN - OUT =          -6.7031

 PERCENT DISCREPANCY =          -0.00     PERCENT DISCREPANCY =          -0.00






         TIME SUMMARY AT END OF TIME STEP    1 IN STRESS PERIOD    4
                    SECONDS     MINUTES      HOURS       DAYS        YEARS
                    -----------------------------------------------------------
   TIME STEP LENGTH 3.15533E+08 5.25888E+06  87648.      3652.0      9.9986    
 STRESS PERIOD TIME 3.15533E+08 5.25888E+06  87648.      3652.0      9.9986    
         TOTAL TIME 9.46685E+08 1.57781E+07 2.62968E+05  10957.      29.999    
1
1
                            STRESS PERIOD NO.    5, LENGTH =   3652.000    
                            -----------------------------------------------

                              NUMBER OF TIME STEPS =     1

                               MULTIPLIER FOR DELT =     1.000

                            INITIAL TIME STEP SIZE =   3652.000    

 REUSING NON-PARAMETER DRAINS FROM LAST STRESS PERIOD

  34800 DRAINS

                 RECHARGE =  7.218784E-04

 SOLVING FOR HEAD 

    ------------------------------------------------
       NWT REQUIRED            5 OUTER ITERATIONS 
       AND A TOTAL OF         65 INNER ITERATIONS.
    ------------------------------------------------

 OUTPUT CONTROL FOR STRESS PERIOD    5   TIME STEP    1
    SAVE HEAD FOR ALL LAYERS

 HEAD WILL BE SAVED ON UNIT   51 AT END OF TIME STEP    1, STRESS PERIOD    5
1
  VOLUMETRIC BUDGET FOR ENTIRE MODEL AT END OF TIME STEP    1, STRESS PERIOD   5
  ------------------------------------------------------------------------------

     CUMULATIVE VOLUMES      L**3       RATES FOR THIS TIME STEP      L**3/T
     ------------------                 ------------------------

           IN:                                      IN:
           ---                                      ---
             STORAGE =    39938872.0000               STORAGE =       10899.4453
       CONSTANT HEAD =       2.0153E-12         CONSTANT HEAD =           0.0000
              DRAINS =           0.0000                DRAINS =           0.0000
            RECHARGE =  1850211968.0000              RECHARGE =      111799.5625

            TOTAL IN =  1890150784.0000              TOTAL IN =      122699.0078

          OUT:                                     OUT:
          ----                                     ----
             STORAGE =    47938624.0000               STORAGE =       4.6168E-03
       CONSTANT HEAD =   398446944.0000         CONSTANT HEAD =       26804.0234
              DRAINS =  1443794176.0000                DRAINS =       95895.0312
            RECHARGE =           0.0000              RECHARGE =           0.0000

           TOTAL OUT =  1890179712.0000             TOTAL OUT =      122699.0625

            IN - OUT =      -28928.0000              IN - OUT =      -5.4688E-02

 PERCENT DISCREPANCY =          -0.00     PERCENT DISCREPANCY =          -0.00






         TIME SUMMARY AT END OF TIME STEP    1 IN STRESS PERIOD    5
                    SECONDS     MINUTES      HOURS       DAYS        YEARS
                    -----------------------------------------------------------
   TIME STEP LENGTH 3.15533E+08 5.25888E+06  87648.      3652.0      9.9986    
 STRESS PERIOD TIME 3.15533E+08 5.25888E+06  87648.      3652.0      9.9986    
         TOTAL TIME 1.26222E+09 2.10370E+07 3.50616E+05  14609.      39.997    
1
1
                            STRESS PERIOD NO.    6, LENGTH =   732.0000    
                            -----------------------------------------------

                              NUMBER OF TIME STEPS =     1

                               MULTIPLIER FOR DELT =     1.000

                            INITIAL TIME STEP SIZE =   732.0000    

 REUSING NON-PARAMETER DRAINS FROM LAST STRESS PERIOD

  34800 DRAINS

                 RECHARGE =  4.581967E-04

 SOLVING FOR HEAD 

    ------------------------------------------------
       NWT REQUIRED            4 OUTER ITERATIONS 
       AND A TOTAL OF         33 INNER ITERATIONS.
    ------------------------------------------------

 OUTPUT CONTROL FOR STRESS PERIOD    6   TIME STEP    1
    SAVE HEAD FOR ALL LAYERS

 HEAD WILL BE SAVED ON UNIT   51 AT END OF TIME STEP    1, STRESS PERIOD    6
1
  VOLUMETRIC BUDGET FOR ENTIRE MODEL AT END OF TIME STEP    1, STRESS PERIOD   6
  ------------------------------------------------------------------------------

     CUMULATIVE VOLUMES      L**3       RATES FOR THIS TIME STEP      L**3/T
     ------------------                 ------------------------

           IN:                                      IN:
           ---                                      ---
             STORAGE =    73214928.0000               STORAGE =       45459.0977
       CONSTANT HEAD =       2.0153E-12         CONSTANT HEAD =           0.0000
              DRAINS =           0.0000                DRAINS =           0.0000
            RECHARGE =  1902156416.0000              RECHARGE =       70962.3516

            TOTAL IN =  1975371392.0000              TOTAL IN =      116421.4531

          OUT:                                     OUT:
          ----                                     ----
             STORAGE =    47938624.0000               STORAGE =       4.1868E-08
       CONSTANT HEAD =   417404928.0000         CONSTANT HEAD =       25898.8711
              DRAINS =  1510054912.0000                DRAINS =       90520.0547
            RECHARGE =           0.0000              RECHARGE =           0.0000

           TOTAL OUT =  1975398400.0000             TOTAL OUT =      116418.9219

            IN - OUT =      -27008.0000              IN - OUT =           2.5312

 PERCENT DISCREPANCY =          -0.00     PERCENT DISCREPANCY =           0.00






         TIME SUMMARY AT END OF TIME STEP    1 IN STRESS PERIOD    6
                    SECONDS     MINUTES      HOURS       DAYS        YEARS
                    -----------------------------------------------------------
   TIME STEP LENGTH 6.32448E+07 1.05408E+06  17568.      732.00      2.0041    
 STRESS PERIOD TIME 6.32448E+07 1.05408E+06  17568.      732.00      2.0041    
         TOTAL TIME 1.32546E+09 2.20910E+07 3.68184E+05  15341.      42.001    
1

 Run end date and time (yyyy/mm/dd hh:mm:ss): 2023/06/14 14:33:41
 Elapsed run time:  1 Minutes, 57.817 Seconds

